download/pglib-opf-master/api/pglib_opf_case2316_sdet__api.m
%%%%%%%%%%%%%%%%%%%%%%%%%%%%%%%%%%%%%%%%%%%%%%%%%%%%%%%%%%%%%%%%%%%%%%%%%%%
%%%%                                                                  %%%%%
%%%%    IEEE PES Power Grid Library - Optimal Power Flow - v19.05     %%%%%
%%%%          (https://github.com/power-grid-lib/pglib-opf)           %%%%%
%%%%             Benchmark Group - Active Power Increase              %%%%%
%%%%                         08 - May - 2019                          %%%%%
%%%%                                                                  %%%%%
%%%%%%%%%%%%%%%%%%%%%%%%%%%%%%%%%%%%%%%%%%%%%%%%%%%%%%%%%%%%%%%%%%%%%%%%%%%
function mpc = pglib_opf_case2316_sdet__api
mpc.version = '2';
mpc.baseMVA = 100.0;

%% bus data
%	bus_i	type	Pd	Qd	Gs	Bs	area	Vm	Va	baseKV	zone	Vmax	Vmin
mpc.bus = [
	1	 1	 0.0	 0.0	 0.0	 0.0	 1	    1.00000	    0.00000	 345.0	 1	    1.10000	    0.90000;
	2	 1	 0.0	 0.0	 0.0	 -7.13	 1	    1.00000	    0.00000	 345.0	 1	    1.10000	    0.90000;
	3	 1	 3.53	 1.91	 0.0	 0.0	 1	    1.00000	    0.00000	 345.0	 1	    1.10000	    0.90000;
	4	 1	 0.0	 0.0	 0.0	 -9.6	 1	    1.00000	    0.00000	 345.0	 1	    1.10000	    0.90000;
	5	 1	 0.0	 0.0	 0.0	 0.0	 1	    1.00000	    0.00000	 345.0	 1	    1.10000	    0.90000;
	6	 1	 0.0	 0.0	 0.0	 41.99	 1	    1.00000	    0.00000	 345.0	 1	    1.10000	    0.90000;
	7	 1	 0.0	 0.0	 0.0	 0.0	 1	    1.00000	    0.00000	 345.0	 1	    1.10000	    0.90000;
	8	 1	 0.0	 0.0	 0.0	 0.0	 1	    1.00000	    0.00000	 345.0	 1	    1.10000	    0.90000;
	9	 2	 221.28	 -103.64	 0.0	 0.0	 1	    1.00000	    0.00000	 345.0	 1	    1.10000	    0.90000;
	10	 2	 52.68	 73.01	 0.0	 -0.23	 1	    1.00000	    0.00000	 345.0	 1	    1.10000	    0.90000;
	11	 2	 15.87	 7.51	 0.0	 -0.24	 1	    1.00000	    0.00000	 138.0	 1	    1.10000	    0.90000;
	12	 2	 26.63	 10.69	 0.0	 -0.53	 1	    1.00000	    0.00000	 138.0	 1	    1.10000	    0.90000;
	13	 1	 8.03	 2.49	 0.0	 0.0	 1	    1.00000	    0.00000	 138.0	 1	    1.10000	    0.90000;
	14	 1	 25.94	 7.84	 0.0	 0.0	 1	    1.00000	    0.00000	 138.0	 1	    1.10000	    0.90000;
	15	 1	 0.55	 0.10	 0.0	 0.0	 1	    1.00000	    0.00000	 138.0	 1	    1.10000	    0.90000;
	16	 1	 0.0	 0.0	 0.0	 0.0	 1	    1.00000	    0.00000	 138.0	 1	    1.10000	    0.90000;
	17	 1	 13.55	 4.62	 0.0	 0.0	 1	    1.00000	    0.00000	 138.0	 1	    1.10000	    0.90000;
	18	 1	 3.12	 0.80	 0.0	 0.0	 1	    1.00000	    0.00000	 138.0	 1	    1.10000	    0.90000;
	19	 1	 1.90	 0.50	 0.0	 0.0	 1	    1.00000	    0.00000	 138.0	 1	    1.10000	    0.90000;
	20	 2	 20.54	 -35.59	 0.0	 0.0	 1	    1.00000	    0.00000	 138.0	 1	    1.10000	    0.90000;
	21	 1	 18.49	 3.10	 0.0	 0.0	 1	    1.00000	    0.00000	 138.0	 1	    1.10000	    0.90000;
	22	 1	 0.0	 0.0	 0.0	 0.0	 1	    1.00000	    0.00000	 138.0	 1	    1.10000	    0.90000;
	23	 1	 42.51	 -12.87	 0.0	 0.0	 1	    1.00000	    0.00000	 138.0	 1	    1.10000	    0.90000;
	24	 2	 10.84	 5.02	 0.0	 0.0	 1	    1.00000	    0.00000	 138.0	 1	    1.10000	    0.90000;
	25	 2	 0.00	 -0.40	 0.0	 0.0	 1	    1.00000	    0.00000	 138.0	 1	    1.10000	    0.90000;
	26	 2	 44.93	 12.61	 0.0	 -0.32	 1	    1.00000	    0.00000	 138.0	 1	    1.10000	    0.90000;
	27	 1	 5.70	 1.50	 0.0	 0.0	 1	    1.00000	    0.00000	 138.0	 1	    1.10000	    0.90000;
	28	 1	 0.0	 0.0	 0.0	 0.0	 1	    1.00000	    0.00000	 138.0	 1	    1.10000	    0.90000;
	29	 1	 12.07	 3.71	 0.0	 0.0	 1	    1.00000	    0.00000	 138.0	 1	    1.10000	    0.90000;
	30	 1	 0.0	 0.0	 0.0	 0.0	 1	    1.00000	    0.00000	 138.0	 1	    1.10000	    0.90000;
	31	 1	 6.23	 1.71	 0.0	 0.0	 1	    1.00000	    0.00000	 138.0	 1	    1.10000	    0.90000;
	32	 2	 8.95	 3.51	 0.0	 -1.31	 1	    1.00000	    0.00000	 138.0	 1	    1.10000	    0.90000;
	33	 1	 8.95	 4.62	 0.0	 0.0	 1	    1.00000	    0.00000	 138.0	 1	    1.10000	    0.90000;
	34	 1	 0.0	 0.0	 0.0	 0.0	 1	    1.00000	    0.00000	 138.0	 1	    1.10000	    0.90000;
	35	 1	 2.03	 0.50	 0.0	 0.0	 1	    1.00000	    0.00000	 138.0	 1	    1.10000	    0.90000;
	36	 1	 0.0	 0.0	 0.0	 0.0	 1	    1.00000	    0.00000	 138.0	 1	    1.10000	    0.90000;
	37	 1	 0.0	 0.0	 0.0	 0.0	 1	    1.00000	    0.00000	 138.0	 1	    1.10000	    0.90000;
	38	 1	 0.0	 0.0	 0.0	 0.0	 1	    1.00000	    0.00000	 138.0	 1	    1.10000	    0.90000;
	39	 1	 5.98	 0.48	 0.0	 -0.49	 1	    1.00000	    0.00000	 138.0	 1	    1.10000	    0.90000;
	40	 1	 0.0	 0.0	 0.0	 0.0	 1	    1.00000	    0.00000	 138.0	 1	    1.10000	    0.90000;
	41	 1	 2.17	 0.60	 0.0	 0.0	 1	    1.00000	    0.00000	 138.0	 1	    1.10000	    0.90000;
	42	 1	 7.73	 0.90	 0.0	 0.0	 1	    1.00000	    0.00000	 138.0	 1	    1.10000	    0.90000;
	43	 1	 0.0	 0.0	 0.0	 3.71	 1	    1.00000	    0.00000	 138.0	 1	    1.10000	    0.90000;
	44	 1	 20.11	 8.31	 0.0	 0.0	 1	    1.00000	    0.00000	 138.0	 1	    1.10000	    0.90000;
	45	 1	 6.28	 2.28	 0.0	 0.0	 1	    1.00000	    0.00000	 138.0	 1	    1.10000	    0.90000;
	46	 2	 47.19	 15.60	 0.0	 -0.35	 1	    1.00000	    0.00000	 138.0	 1	    1.10000	    0.90000;
	47	 1	 14.86	 4.19	 0.0	 0.0	 1	    1.00000	    0.00000	 138.0	 1	    1.10000	    0.90000;
	48	 1	 0.00	 0.15	 0.0	 0.0	 1	    1.00000	    0.00000	 138.0	 1	    1.10000	    0.90000;
	49	 1	 22.74	 4.21	 0.0	 -4.15	 1	    1.00000	    0.00000	 138.0	 1	    1.10000	    0.90000;
	50	 1	 0.0	 0.0	 0.0	 0.0	 1	    1.00000	    0.00000	 138.0	 1	    1.10000	    0.90000;
	51	 1	 0.0	 0.0	 0.0	 0.0	 1	    1.00000	    0.00000	 138.0	 1	    1.10000	    0.90000;
	52	 1	 23.59	 5.92	 0.0	 0.0	 1	    1.00000	    0.00000	 138.0	 1	    1.10000	    0.90000;
	53	 2	 10.05	 3.22	 0.0	 -61.98	 1	    1.00000	    0.00000	 138.0	 1	    1.10000	    0.90000;
	54	 1	 4.89	 2.11	 0.0	 0.0	 1	    1.00000	    0.00000	 138.0	 1	    1.10000	    0.90000;
	55	 1	 0.32	 0.00	 0.0	 0.0	 1	    1.00000	    0.00000	 138.0	 1	    1.10000	    0.90000;
	56	 1	 8.97	 2.62	 0.0	 0.0	 1	    1.00000	    0.00000	 138.0	 1	    1.10000	    0.90000;
	57	 1	 5.29	 1.49	 0.0	 0.0	 1	    1.00000	    0.00000	 138.0	 1	    1.10000	    0.90000;
	58	 1	 49.85	 -5.88	 0.0	 0.0	 1	    1.00000	    0.00000	 138.0	 1	    1.10000	    0.90000;
	59	 1	 8.41	 2.23	 0.0	 0.0	 1	    1.00000	    0.00000	 138.0	 1	    1.10000	    0.90000;
	60	 1	 1.90	 0.40	 0.0	 0.0	 1	    1.00000	    0.00000	 138.0	 1	    1.10000	    0.90000;
	61	 1	 11.39	 24.27	 0.0	 0.0	 1	    1.00000	    0.00000	 138.0	 1	    1.10000	    0.90000;
	62	 1	 0.0	 0.0	 0.0	 0.0	 1	    1.00000	    0.00000	 138.0	 1	    1.10000	    0.90000;
	63	 1	 5.96	 1.55	 0.0	 0.0	 1	    1.00000	    0.00000	 138.0	 1	    1.10000	    0.90000;
	64	 1	 2.98	 0.80	 0.0	 0.0	 1	    1.00000	    0.00000	 138.0	 1	    1.10000	    0.90000;
	65	 1	 2.72	 0.70	 0.0	 0.0	 1	    1.00000	    0.00000	 138.0	 1	    1.10000	    0.90000;
	66	 1	 9.38	 2.73	 0.0	 0.0	 1	    1.00000	    0.00000	 138.0	 1	    1.10000	    0.90000;
	67	 2	 12.24	 3.73	 0.0	 3.71	 1	    1.00000	    0.00000	 138.0	 1	    1.10000	    0.90000;
	68	 2	 21.82	 33.81	 0.0	 0.0	 1	    1.00000	    0.00000	 138.0	 1	    1.10000	    0.90000;
	69	 1	 0.0	 0.0	 0.0	 -0.29	 1	    1.00000	    0.00000	 138.0	 1	    1.10000	    0.90000;
	70	 1	 31.72	 7.00	 0.0	 0.0	 1	    1.00000	    0.00000	 138.0	 1	    1.10000	    0.90000;
	71	 1	 0.0	 0.0	 0.0	 0.0	 2	    1.00000	    0.00000	 345.0	 2	    1.10000	    0.90000;
	72	 1	 0.0	 0.0	 0.0	 0.0	 2	    1.00000	    0.00000	 345.0	 2	    1.10000	    0.90000;
	73	 1	 0.0	 0.0	 0.0	 0.0	 2	    1.00000	    0.00000	 345.0	 2	    1.10000	    0.90000;
	74	 1	 0.0	 0.0	 0.0	 0.0	 2	    1.00000	    0.00000	 345.0	 2	    1.10000	    0.90000;
	75	 2	 15.23	 30.00	 0.0	 0.0	 2	    1.00000	    0.00000	 345.0	 2	    1.10000	    0.90000;
	76	 2	 25.26	 36.57	 0.0	 0.0	 2	    1.00000	    0.00000	 345.0	 2	    1.10000	    0.90000;
	77	 2	 15.23	 30.00	 0.0	 0.0	 2	    1.00000	    0.00000	 500.0	 2	    1.10000	    0.90000;
	78	 2	 0.0	 0.0	 0.0	 14.58	 2	    1.00000	    0.00000	 345.0	 2	    1.10000	    0.90000;
	79	 1	 0.0	 0.0	 0.0	 0.0	 2	    1.00000	    0.00000	 345.0	 2	    1.10000	    0.90000;
	80	 1	 0.0	 0.0	 0.0	 0.0	 2	    1.00000	    0.00000	 345.0	 2	    1.10000	    0.90000;
	81	 1	 0.0	 0.0	 0.0	 0.0	 2	    1.00000	    0.00000	 345.0	 2	    1.10000	    0.90000;
	82	 1	 0.0	 0.0	 0.0	 0.0	 2	    1.00000	    0.00000	 345.0	 2	    1.10000	    0.90000;
	83	 1	 14.53	 2.64	 0.0	 0.0	 2	    1.00000	    0.00000	 138.0	 2	    1.10000	    0.90000;
	84	 1	 32.88	 6.42	 0.0	 0.0	 2	    1.00000	    0.00000	 138.0	 2	    1.10000	    0.90000;
	85	 1	 0.0	 0.0	 0.0	 0.0	 2	    1.00000	    0.00000	 138.0	 2	    1.10000	    0.90000;
	86	 1	 7.66	 2.42	 0.0	 6.32	 2	    1.00000	    0.00000	 138.0	 2	    1.10000	    0.90000;
	87	 1	 3.83	 1.27	 0.0	 0.0	 2	    1.00000	    0.00000	 138.0	 2	    1.10000	    0.90000;
	88	 1	 8.41	 0.64	 0.0	 0.0	 2	    1.00000	    0.00000	 138.0	 2	    1.10000	    0.90000;
	89	 1	 15.85	 4.85	 0.0	 0.0	 2	    1.00000	    0.00000	 138.0	 2	    1.10000	    0.90000;
	90	 2	 4.61	 0.53	 0.0	 -0.02	 2	    1.00000	    0.00000	 138.0	 2	    1.10000	    0.90000;
	91	 1	 4.49	 1.16	 0.0	 0.0	 2	    1.00000	    0.00000	 138.0	 2	    1.10000	    0.90000;
	92	 2	 24.39	 32.90	 0.0	 0.0	 2	    1.00000	    0.00000	 138.0	 2	    1.10000	    0.90000;
	93	 1	 0.0	 0.0	 0.0	 0.0	 2	    1.00000	    0.00000	 138.0	 2	    1.10000	    0.90000;
	94	 1	 2.91	 0.84	 0.0	 0.0	 2	    1.00000	    0.00000	 138.0	 2	    1.10000	    0.90000;
	95	 2	 5.95	 1.91	 0.0	 3.0	 2	    1.00000	    0.00000	 138.0	 2	    1.10000	    0.90000;
	96	 2	 0.10	 -0.79	 0.0	 0.0	 2	    1.00000	    0.00000	 138.0	 2	    1.10000	    0.90000;
	97	 1	 7.07	 1.97	 0.0	 0.0	 2	    1.00000	    0.00000	 138.0	 2	    1.10000	    0.90000;
	98	 2	 25.67	 25.52	 0.0	 0.0	 2	    1.00000	    0.00000	 138.0	 2	    1.10000	    0.90000;
	99	 2	 15.95	 9.27	 0.0	 0.0	 2	    1.00000	    0.00000	 138.0	 2	    1.10000	    0.90000;
	100	 1	 16.38	 4.74	 0.0	 0.0	 2	    1.00000	    0.00000	 138.0	 2	    1.10000	    0.90000;
	101	 1	 11.89	 3.79	 0.0	 0.0	 2	    1.00000	    0.00000	 138.0	 2	    1.10000	    0.90000;
	102	 1	 17.97	 5.69	 0.0	 0.0	 2	    1.00000	    0.00000	 138.0	 2	    1.10000	    0.90000;
	103	 1	 14.47	 3.74	 0.0	 0.0	 2	    1.00000	    0.00000	 138.0	 2	    1.10000	    0.90000;
	104	 1	 13.21	 3.80	 0.0	 0.0	 2	    1.00000	    0.00000	 138.0	 2	    1.10000	    0.90000;
	105	 1	 0.0	 0.0	 0.0	 0.42	 2	    1.00000	    0.00000	 138.0	 2	    1.10000	    0.90000;
	106	 1	 0.0	 0.0	 0.0	 0.0	 2	    1.00000	    0.00000	 138.0	 2	    1.10000	    0.90000;
	107	 1	 6.97	 0.64	 0.0	 0.0	 2	    1.00000	    0.00000	 138.0	 2	    1.10000	    0.90000;
	108	 1	 8.72	 2.00	 0.0	 0.0	 2	    1.00000	    0.00000	 138.0	 2	    1.10000	    0.90000;
	109	 1	 7.13	 2.32	 0.0	 0.0	 2	    1.00000	    0.00000	 138.0	 2	    1.10000	    0.90000;
	110	 1	 5.28	 1.69	 0.0	 0.0	 2	    1.00000	    0.00000	 138.0	 2	    1.10000	    0.90000;
	111	 1	 1.85	 0.53	 0.0	 0.0	 2	    1.00000	    0.00000	 138.0	 2	    1.10000	    0.90000;
	112	 2	 2.27	 0.76	 0.0	 0.42	 2	    1.00000	    0.00000	 138.0	 2	    1.10000	    0.90000;
	113	 1	 2.12	 0.74	 0.0	 0.0	 2	    1.00000	    0.00000	 138.0	 2	    1.10000	    0.90000;
	114	 1	 3.95	 0.86	 0.0	 0.0	 2	    1.00000	    0.00000	 138.0	 2	    1.10000	    0.90000;
	115	 1	 6.05	 0.54	 0.0	 0.0	 2	    1.00000	    0.00000	 138.0	 2	    1.10000	    0.90000;
	116	 1	 8.98	 1.79	 0.0	 0.0	 2	    1.00000	    0.00000	 138.0	 2	    1.10000	    0.90000;
	117	 1	 14.53	 4.64	 0.0	 6.66	 2	    1.00000	    0.00000	 138.0	 2	    1.10000	    0.90000;
	118	 1	 10.70	 3.37	 0.0	 0.0	 2	    1.00000	    0.00000	 138.0	 2	    1.10000	    0.90000;
	119	 1	 6.77	 -1.70	 0.0	 0.0	 2	    1.00000	    0.00000	 138.0	 2	    1.10000	    0.90000;
	120	 2	 27.75	 12.66	 0.0	 0.0	 2	    1.00000	    0.00000	 138.0	 2	    1.10000	    0.90000;
	121	 1	 31.70	 23.19	 0.0	 0.0	 2	    1.00000	    0.00000	 138.0	 2	    1.10000	    0.90000;
	122	 1	 18.49	 4.22	 0.0	 0.0	 2	    1.00000	    0.00000	 138.0	 2	    1.10000	    0.90000;
	123	 1	 20.47	 4.74	 0.0	 0.0	 2	    1.00000	    0.00000	 138.0	 2	    1.10000	    0.90000;
	124	 2	 6.78	 1.77	 0.0	 0.0	 2	    1.00000	    0.00000	 138.0	 2	    1.10000	    0.90000;
	125	 2	 7.19	 5.84	 0.0	 0.0	 2	    1.00000	    0.00000	 138.0	 2	    1.10000	    0.90000;
	126	 1	 9.77	 3.16	 0.0	 0.0	 2	    1.00000	    0.00000	 138.0	 2	    1.10000	    0.90000;
	127	 2	 0.0	 0.0	 0.0	 0.0	 2	    1.00000	    0.00000	 138.0	 2	    1.10000	    0.90000;
	128	 2	 9.39	 2.54	 0.0	 0.0	 2	    1.00000	    0.00000	 138.0	 2	    1.10000	    0.90000;
	129	 1	 1.52	 0.47	 0.0	 0.0	 2	    1.00000	    0.00000	 138.0	 2	    1.10000	    0.90000;
	130	 1	 7.26	 2.32	 0.0	 0.0	 2	    1.00000	    0.00000	 138.0	 2	    1.10000	    0.90000;
	131	 1	 7.40	 2.32	 0.0	 0.0	 2	    1.00000	    0.00000	 138.0	 2	    1.10000	    0.90000;
	132	 1	 7.93	 1.74	 0.0	 0.0	 2	    1.00000	    0.00000	 138.0	 2	    1.10000	    0.90000;
	133	 1	 7.93	 1.74	 0.0	 0.0	 2	    1.00000	    0.00000	 138.0	 2	    1.10000	    0.90000;
	134	 1	 0.80	 0.21	 0.0	 0.0	 2	    1.00000	    0.00000	 138.0	 2	    1.10000	    0.90000;
	135	 2	 16.66	 5.28	 0.0	 0.0	 2	    1.00000	    0.00000	 138.0	 2	    1.10000	    0.90000;
	136	 2	 11.89	 3.61	 0.0	 0.0	 2	    1.00000	    0.00000	 138.0	 2	    1.10000	    0.90000;
	137	 1	 5.94	 1.90	 0.0	 0.0	 2	    1.00000	    0.00000	 138.0	 2	    1.10000	    0.90000;
	138	 2	 8.20	 2.54	 0.0	 4.2	 2	    1.00000	    0.00000	 138.0	 2	    1.10000	    0.90000;
	139	 1	 27.61	 6.10	 0.0	 0.0	 2	    1.00000	    0.00000	 138.0	 2	    1.10000	    0.90000;
	140	 1	 2.64	 0.84	 0.0	 0.0	 2	    1.00000	    0.00000	 138.0	 2	    1.10000	    0.90000;
	141	 1	 3.44	 1.05	 0.0	 0.0	 2	    1.00000	    0.00000	 138.0	 2	    1.10000	    0.90000;
	142	 1	 5.15	 0.53	 0.0	 0.0	 2	    1.00000	    0.00000	 138.0	 2	    1.10000	    0.90000;
	143	 1	 0.0	 0.0	 0.0	 0.0	 2	    1.00000	    0.00000	 138.0	 2	    1.10000	    0.90000;
	144	 1	 0.0	 0.0	 0.0	 0.0	 2	    1.00000	    0.00000	 138.0	 2	    1.10000	    0.90000;
	145	 1	 0.0	 0.0	 0.0	 0.0	 2	    1.00000	    0.00000	 138.0	 2	    1.10000	    0.90000;
	146	 1	 10.70	 3.06	 0.0	 0.0	 2	    1.00000	    0.00000	 138.0	 2	    1.10000	    0.90000;
	147	 1	 4.76	 0.84	 0.0	 0.0	 2	    1.00000	    0.00000	 138.0	 2	    1.10000	    0.90000;
	148	 1	 35.79	 10.33	 0.0	 0.0	 2	    1.00000	    0.00000	 138.0	 2	    1.10000	    0.90000;
	149	 1	 1.98	 0.63	 0.0	 0.0	 2	    1.00000	    0.00000	 138.0	 2	    1.10000	    0.90000;
	150	 2	 634.00	 0.00	 0.0	 0.0	 2	    1.00000	    0.00000	 345.0	 2	    1.10000	    0.90000;
	151	 1	 103.41	 85.90	 0.0	 0.0	 3	    1.00000	    0.00000	 345.0	 3	    1.10000	    0.90000;
	152	 1	 0.0	 0.0	 0.0	 0.0	 3	    1.00000	    0.00000	 500.0	 3	    1.10000	    0.90000;
	153	 2	 0.0	 0.0	 0.0	 -11.35	 3	    1.00000	    0.00000	 500.0	 3	    1.10000	    0.90000;
	154	 1	 0.0	 0.0	 0.0	 0.0	 3	    1.00000	    0.00000	 500.0	 3	    1.10000	    0.90000;
	155	 1	 0.0	 0.0	 0.0	 0.0	 3	    1.00000	    0.00000	 500.0	 3	    1.10000	    0.90000;
	156	 1	 0.0	 0.0	 0.0	 75.29	 3	    1.00000	    0.00000	 500.0	 3	    1.10000	    0.90000;
	157	 2	 0.0	 0.0	 0.0	 -27.07	 3	    1.00000	    0.00000	 345.0	 3	    1.10000	    0.90000;
	158	 2	 0.0	 0.0	 0.0	 -322.11	 3	    1.00000	    0.00000	 500.0	 3	    1.10000	    0.90000;
	159	 1	 0.0	 0.0	 0.0	 0.0	 3	    1.00000	    0.00000	 500.0	 3	    1.10000	    0.90000;
	160	 1	 0.0	 0.0	 0.0	 0.0	 3	    1.00000	    0.00000	 500.0	 3	    1.10000	    0.90000;
	161	 2	 0.0	 0.0	 0.0	 -124.24	 3	    1.00000	    0.00000	 500.0	 3	    1.10000	    0.90000;
	162	 1	 44.04	 60.16	 0.0	 0.0	 3	    1.00000	    0.00000	 500.0	 3	    1.10000	    0.90000;
	163	 1	 0.0	 0.0	 0.0	 70.0	 3	    1.00000	    0.00000	 500.0	 3	    1.10000	    0.90000;
	164	 1	 0.0	 0.0	 0.0	 0.0	 3	    1.00000	    0.00000	 500.0	 3	    1.10000	    0.90000;
	165	 2	 13.96	 40.00	 0.0	 0.0	 3	    1.00000	    0.00000	 500.0	 3	    1.10000	    0.90000;
	166	 2	 6.34	 10.00	 0.0	 0.0	 3	    1.00000	    0.00000	 500.0	 3	    1.10000	    0.90000;
	167	 1	 8.79	 3.11	 0.0	 0.0	 3	    1.00000	    0.00000	 138.0	 3	    1.10000	    0.90000;
	168	 2	 18.59	 1.00	 0.0	 0.0	 3	    1.00000	    0.00000	 138.0	 3	    1.10000	    0.90000;
	169	 2	 10.33	 1.32	 0.0	 0.0	 3	    1.00000	    0.00000	 138.0	 3	    1.10000	    0.90000;
	170	 1	 17.98	 4.22	 0.0	 0.0	 3	    1.00000	    0.00000	 138.0	 3	    1.10000	    0.90000;
	171	 2	 5.35	 1.00	 0.0	 0.0	 3	    1.00000	    0.00000	 138.0	 3	    1.10000	    0.90000;
	172	 1	 167.38	 57.06	 0.0	 0.0	 3	    1.00000	    0.00000	 138.0	 3	    1.10000	    0.90000;
	173	 1	 0.0	 0.0	 0.0	 48.6	 3	    1.00000	    0.00000	 32.0	 3	    1.10000	    0.90000;
	174	 1	 0.0	 0.0	 0.0	 0.0	 3	    1.00000	    0.00000	 138.0	 3	    1.10000	    0.90000;
	175	 1	 6.62	 2.11	 0.0	 0.0	 3	    1.00000	    0.00000	 138.0	 3	    1.10000	    0.90000;
	176	 1	 3.31	 1.00	 0.0	 0.0	 3	    1.00000	    0.00000	 138.0	 3	    1.10000	    0.90000;
	177	 2	 0.01	 0.01	 0.0	 0.0	 3	    1.00000	    0.00000	 138.0	 3	    1.10000	    0.90000;
	178	 2	 0.01	 0.01	 0.0	 0.0	 3	    1.00000	    0.00000	 138.0	 3	    1.10000	    0.90000;
	179	 1	 19.88	 5.22	 0.0	 0.0	 3	    1.00000	    0.00000	 138.0	 3	    1.10000	    0.90000;
	180	 1	 21.29	 4.72	 0.0	 0.0	 3	    1.00000	    0.00000	 138.0	 3	    1.10000	    0.90000;
	181	 1	 5.35	 0.50	 0.0	 0.0	 3	    1.00000	    0.00000	 138.0	 3	    1.10000	    0.90000;
	182	 1	 13.77	 1.00	 0.0	 0.0	 3	    1.00000	    0.00000	 138.0	 3	    1.10000	    0.90000;
	183	 2	 18.61	 3.11	 0.0	 0.0	 3	    1.00000	    0.00000	 138.0	 3	    1.10000	    0.90000;
	184	 1	 9.57	 1.00	 0.0	 0.0	 3	    1.00000	    0.00000	 138.0	 3	    1.10000	    0.90000;
	185	 2	 2.68	 0.50	 0.0	 0.0	 3	    1.00000	    0.00000	 138.0	 3	    1.10000	    0.90000;
	186	 1	 7.27	 1.00	 0.0	 0.0	 3	    1.00000	    0.00000	 138.0	 3	    1.10000	    0.90000;
	187	 1	 0.0	 0.0	 0.0	 60.0	 3	    1.00000	    0.00000	 16.0	 3	    1.10000	    0.90000;
	188	 2	 11.99	 2.61	 0.0	 0.0	 3	    1.00000	    0.00000	 138.0	 3	    1.10000	    0.90000;
	189	 1	 5.35	 1.00	 0.0	 0.0	 3	    1.00000	    0.00000	 138.0	 3	    1.10000	    0.90000;
	190	 1	 29.32	 8.34	 0.0	 0.0	 3	    1.00000	    0.00000	 138.0	 3	    1.10000	    0.90000;
	191	 1	 19.88	 2.61	 0.0	 0.0	 3	    1.00000	    0.00000	 138.0	 3	    1.10000	    0.90000;
	192	 1	 25.24	 6.83	 0.0	 0.0	 3	    1.00000	    0.00000	 138.0	 3	    1.10000	    0.90000;
	193	 1	 10.58	 2.71	 0.0	 0.0	 3	    1.00000	    0.00000	 138.0	 3	    1.10000	    0.90000;
	194	 2	 21.29	 6.33	 0.0	 0.0	 3	    1.00000	    0.00000	 138.0	 3	    1.10000	    0.90000;
	195	 2	 18.61	 3.11	 0.0	 0.0	 3	    1.00000	    0.00000	 138.0	 3	    1.10000	    0.90000;
	196	 1	 5.80	 -0.22	 0.0	 0.0	 3	    1.00000	    0.00000	 138.0	 3	    1.10000	    0.90000;
	197	 1	 9.30	 2.11	 0.0	 0.0	 3	    1.00000	    0.00000	 138.0	 3	    1.10000	    0.90000;
	198	 1	 6.62	 0.50	 0.0	 0.0	 3	    1.00000	    0.00000	 138.0	 3	    1.10000	    0.90000;
	199	 1	 0.0	 0.0	 0.0	 -16.07	 3	    1.00000	    0.00000	 138.0	 3	    1.10000	    0.90000;
	200	 1	 0.0	 0.0	 0.0	 -2.01	 3	    1.00000	    0.00000	 138.0	 3	    1.10000	    0.90000;
...
];

%% generator data
%	bus	Pg	Qg	Qmax	Qmin	Vg	mBase	status	Pmax	Pmin	Pc1	Pc2	Qc1min	Qc1max	Qc2min	Qc2max	ramp_agc	ramp_10	ramp_30	ramp_q	apf
mpc.gen = [
	9	 228.25	 0.0	 195.0	 -195.0	 1.0	 252.98	 1	 389	 67.5	 0.0	 0.0	 0.0	 0.0	 0.0	 0.0	 0.0	 0.0	 0.0	 0.0	 256.25; % NG
	10	 192.88	 0.0	 150.0	 -150.0	 1.0	 267.71	 1	 300	 85.76	 0.0	 0.0	 0.0	 0.0	 0.0	 0.0	 0.0	 0.0	 0.0	 0.0	 426.557; % NG
	10	 230.22	 0.0	 186.0	 -186.0	 1.0	 256.16	 1	 371	 89.44	 0.0	 0.0	 0.0	 0.0	 0.0	 0.0	 0.0	 0.0	 0.0	 0.0	 444.218; % COW
	11	 0.0	 0.0	 18.0	 -18.0	 1.0	 48.0	 0	 35	 20.0	 0.0	 0.0	 0.0	 0.0	 0.0	 0.0	 0.0	 0.0	 0.0	 0.0	 55.0; % NG
	11	 133.9575	 0.0	 125.0	 -125.0	 1.0	 55.0	 1	 250	 17.915	 0.0	 0.0	 0.0	 0.0	 0.0	 0.0	 0.0	 0.0	 0.0	 0.0	 55.0; % COW
	12	 39.4575	 7.0	 45.0	 -31.0	 1.0	 55.0	 1	 61	 17.915	 0.0	 0.0	 0.0	 0.0	 0.0	 0.0	 0.0	 0.0	 0.0	 0.0	 55.0; % NG
	20	 0.0	 0.0	 43.0	 -43.0	 1.0	 50.0	 0	 86	 19.0	 0.0	 0.0	 0.0	 0.0	 0.0	 0.0	 0.0	 0.0	 0.0	 0.0	 50.0; % NG
	24	 59.525	 66.0	 192.0	 -60.0	 1.0	 100.0	 1	 119	 0.05	 0.0	 0.0	 0.0	 0.0	 0.0	 0.0	 0.0	 0.0	 0.0	 0.0	 74.505; % NG
	25	 0.0	 0.0	 8.0	 -8.0	 1.0	 24.0	 0	 0	 5.0	 0.0	 0.0	 0.0	 0.0	 0.0	 0.0	 0.0	 0.0	 0.0	 0.0	 24.0; % NG
	25	 0.0	 0.0	 9.0	 -9.0	 1.0	 17.0	 0	 18	 2.0	 0.0	 0.0	 0.0	 0.0	 0.0	 0.0	 0.0	 0.0	 0.0	 0.0	 17.0; % PEL
	26	 61.25	 -2.5	 178.0	 -183.0	 1.0	 15.0	 1	 121	 1.5	 0.0	 0.0	 0.0	 0.0	 0.0	 0.0	 0.0	 0.0	 0.0	 0.0	 15.0; % COW
	26	 0.0	 0.0	 20.0	 -20.0	 1.0	 15.0	 0	 40	 1.5	 0.0	 0.0	 0.0	 0.0	 0.0	 0.0	 0.0	 0.0	 0.0	 0.0	 15.0; % PEL
	26	 0.0	 0.0	 35.0	 -35.0	 1.0	 15.0	 0	 69	 1.5	 0.0	 0.0	 0.0	 0.0	 0.0	 0.0	 0.0	 0.0	 0.0	 0.0	 15.0; % NG
	32	 0.0	 0.0	 135.0	 -135.0	 1.0	 100.0	 0	 269	 3.005	 0.0	 0.0	 0.0	 0.0	 0.0	 0.0	 0.0	 0.0	 0.0	 0.0	 265.0; % NG
	46	 0.0	 0.0	 15.0	 -15.0	 1.0	 12.0	 0	 30	 0.0	 0.0	 0.0	 0.0	 0.0	 0.0	 0.0	 0.0	 0.0	 0.0	 0.0	 12.0; % NG
	46	 110.5	 3.5	 184.0	 -177.0	 1.0	 12.0	 1	 221	 0.0	 0.0	 0.0	 0.0	 0.0	 0.0	 0.0	 0.0	 0.0	 0.0	 0.0	 12.0; % COW
	53	 0.0	 0.0	 33.33	 -33.33	 1.0	 100.0	 0	 61	 6.335	 0.0	 0.0	 0.0	 0.0	 0.0	 0.0	 0.0	 0.0	 0.0	 0.0	 27.674; % NG
	67	 0.0	 0.0	 33.33	 -33.33	 1.0	 100.0	 0	 36	 1.665	 0.0	 0.0	 0.0	 0.0	 0.0	 0.0	 0.0	 0.0	 0.0	 0.0	 268.0; % NG
	68	 259.25	 0.0	 226.0	 -226.0	 1.0	 267.05	 1	 451	 67.5	 0.0	 0.0	 0.0	 0.0	 0.0	 0.0	 0.0	 0.0	 0.0	 0.0	 256.25; % COW
	75	 208.75	 0.0	 175.0	 -175.0	 1.0	 253.76	 1	 350	 67.5	 0.0	 0.0	 0.0	 0.0	 0.0	 0.0	 0.0	 0.0	 0.0	 0.0	 205.0; % COW
	76	 0.0	 0.0	 74.0	 -74.0	 1.0	 222.0	 0	 12	 90.0	 0.0	 0.0	 0.0	 0.0	 0.0	 0.0	 0.0	 0.0	 0.0	 0.0	 222.0; % NG
	76	 0.0	 0.0	 68.33	 -68.33	 1.0	 205.0	 0	 14	 135.0	 0.0	 0.0	 0.0	 0.0	 0.0	 0.0	 0.0	 0.0	 0.0	 0.0	 205.0; % NG
	76	 125.5	 0.0	 217.2	 -217.2	 1.0	 232.0	 1	 201	 50.0	 0.0	 0.0	 0.0	 0.0	 0.0	 0.0	 0.0	 0.0	 0.0	 0.0	 232.0; % NG
	77	 134.0	 0.0	 175.2	 -175.2	 1.0	 268.92	 1	 223	 45.0	 0.0	 0.0	 0.0	 0.0	 0.0	 0.0	 0.0	 0.0	 0.0	 0.0	 250.0; % NG
	77	 196.4075	 -1.71	 171.78	 -175.2	 1.0	 100.0	 1	 333	 59.815	 0.0	 0.0	 0.0	 0.0	 0.0	 0.0	 0.0	 0.0	 0.0	 0.0	 247.434; % NG
	78	 73.1275	 -12.485	 99.9	 -124.87	 1.0	 100.0	 1	 113	 33.255	 0.0	 0.0	 0.0	 0.0	 0.0	 0.0	 0.0	 0.0	 0.0	 0.0	 173.855; % NG
	90	 0.0	 0.0	 33.33	 -33.33	 1.0	 100.0	 0	 19	 9.6	 0.0	 0.0	 0.0	 0.0	 0.0	 0.0	 0.0	 0.0	 0.0	 0.0	 34.203; % PEL
	92	 89.0	 25.0	 117.0	 -67.0	 1.0	 222.0	 1	 133	 45.0	 0.0	 0.0	 0.0	 0.0	 0.0	 0.0	 0.0	 0.0	 0.0	 0.0	 222.0; % NG
	95	 43.5	 14.0	 197.0	 -169.0	 1.0	 2.04	 1	 87	 0.0	 0.0	 0.0	 0.0	 0.0	 0.0	 0.0	 0.0	 0.0	 0.0	 0.0	 287.0; % NG
	96	 0.0	 0.0	 84.0	 -84.0	 1.0	 1.0	 0	 167	 0.0	 0.0	 0.0	 0.0	 0.0	 0.0	 0.0	 0.0	 0.0	 0.0	 0.0	 274.0; % NG
	98	 47.0	 -65.0	 45.0	 -175.0	 1.0	 65.75	 1	 89	 5.0	 0.0	 0.0	 0.0	 0.0	 0.0	 0.0	 0.0	 0.0	 0.0	 0.0	 65.875; % PEL
	98	 86.5	 8.0	 191.0	 -175.0	 1.0	 6.0	 1	 172	 1.0	 0.0	 0.0	 0.0	 0.0	 0.0	 0.0	 0.0	 0.0	 0.0	 0.0	 267.0; % NG
	99	 54.25	 -1.0	 178.0	 -180.0	 1.0	 6.47	 1	 108	 0.5	 0.0	 0.0	 0.0	 0.0	 0.0	 0.0	 0.0	 0.0	 0.0	 0.0	 262.0; % NG
	99	 0.0	 0.0	 59.0	 -59.0	 1.0	 29.0	 0	 117	 10.5	 0.0	 0.0	 0.0	 0.0	 0.0	 0.0	 0.0	 0.0	 0.0	 0.0	 36.0; % NG
	112	 23.5	 5.0	 179.0	 -169.0	 1.0	 0.26	 1	 47	 0.0	 0.0	 0.0	 0.0	 0.0	 0.0	 0.0	 0.0	 0.0	 0.0	 0.0	 278.0; % NG
	112	 78.25	 4.0	 176.0	 -168.0	 1.0	 1.36	 1	 156	 0.5	 0.0	 0.0	 0.0	 0.0	 0.0	 0.0	 0.0	 0.0	 0.0	 0.0	 288.0; % NG
	120	 42.75	 8.0	 190.0	 -174.0	 1.0	 20.0	 1	 83	 2.5	 0.0	 0.0	 0.0	 0.0	 0.0	 0.0	 0.0	 0.0	 0.0	 0.0	 20.0; % PEL
	124	 0.0	 0.0	 22.33	 -22.33	 1.0	 67.0	 0	 36	 20.0	 0.0	 0.0	 0.0	 0.0	 0.0	 0.0	 0.0	 0.0	 0.0	 0.0	 67.0; % PEL
	125	 130.0	 -23.5	 120.0	 -167.0	 1.0	 65.0	 1	 240	 20.0	 0.0	 0.0	 0.0	 0.0	 0.0	 0.0	 0.0	 0.0	 0.0	 0.0	 65.0; % NG
	127	 31.5	 6.0	 189.0	 -177.0	 1.0	 31.0	 1	 63	 0.0	 0.0	 0.0	 0.0	 0.0	 0.0	 0.0	 0.0	 0.0	 0.0	 0.0	 31.0; % PEL
	128	 23.0	 6.0	 187.0	 -175.0	 1.0	 31.0	 1	 46	 0.0	 0.0	 0.0	 0.0	 0.0	 0.0	 0.0	 0.0	 0.0	 0.0	 0.0	 31.0; % PEL
	135	 93.25	 -1.0	 182.0	 -184.0	 1.0	 2.03	 1	 186	 0.5	 0.0	 0.0	 0.0	 0.0	 0.0	 0.0	 0.0	 0.0	 0.0	 0.0	 286.0; % COW
	136	 0.0	 0.0	 31.0	 -31.0	 1.0	 4.0	 0	 61	 0.5	 0.0	 0.0	 0.0	 0.0	 0.0	 0.0	 0.0	 0.0	 0.0	 0.0	 256.0; % NG
	136	 0.0	 0.0	 105.0	 -105.0	 1.0	 18.0	 0	 209	 1.5	 0.0	 0.0	 0.0	 0.0	 0.0	 0.0	 0.0	 0.0	 0.0	 0.0	 18.0; % NG
	136	 0.0	 0.0	 41.0	 -41.0	 1.0	 56.0	 0	 81	 5.0	 0.0	 0.0	 0.0	 0.0	 0.0	 0.0	 0.0	 0.0	 0.0	 0.0	 56.0; % NG
	138	 31.0	 1.0	 186.0	 -184.0	 1.0	 0.24	 1	 62	 0.0	 0.0	 0.0	 0.0	 0.0	 0.0	 0.0	 0.0	 0.0	 0.0	 0.0	 260.0; % COW
	150	 79.5	 3.0	 183.0	 -177.0	 1.0	 108.13	 1	 159	 0.0	 0.0	 0.0	 0.0	 0.0	 0.0	 0.0	 0.0	 0.0	 0.0	 0.0	 268.0; % NG
	153	 0.0	 0.0	 33.33	 -33.33	 1.0	 100.0	 0	 53	 122.97	 0.0	 0.0	 0.0	 0.0	 0.0	 0.0	 0.0	 0.0	 0.0	 0.0	 137.965; % NG
	157	 0.0	 0.0	 111.0	 -111.0	 1.0	 100.0	 0	 221	 19.27	 0.0	 0.0	 0.0	 0.0	 0.0	 0.0	 0.0	 0.0	 0.0	 0.0	 53.537; % NG
	158	 0.0	 0.0	 124.0	 -124.0	 1.0	 100.0	 0	 247	 134.54	 0.0	 0.0	 0.0	 0.0	 0.0	 0.0	 0.0	 0.0	 0.0	 0.0	 284.075; % COW
	161	 0.0	 0.0	 33.33	 -33.33	 1.0	 100.0	 0	 2	 27.02	 0.0	 0.0	 0.0	 0.0	 0.0	 0.0	 0.0	 0.0	 0.0	 0.0	 42.024; % NG
	165	 -36.0	 20.5	 105.0	 -64.0	 1.0	 216.55	 1	 128	 -200.0	 0.0	 0.0	 0.0	 0.0	 0.0	 0.0	 0.0	 0.0	 0.0	 0.0	 179.0; % COW
	165	 -51.0	 21.5	 105.0	 -62.0	 1.0	 179.0	 1	 98	 -200.0	 0.0	 0.0	 0.0	 0.0	 0.0	 0.0	 0.0	 0.0	 0.0	 0.0	 179.0; % NG
	165	 -21.5	 25.5	 130.0	 -79.0	 1.0	 179.0	 1	 157	 -200.0	 0.0	 0.0	 0.0	 0.0	 0.0	 0.0	 0.0	 0.0	 0.0	 0.0	 179.0; % NG
	166	 43.5	 8.0	 160.0	 -144.0	 1.0	 179.0	 1	 287	 -200.0	 0.0	 0.0	 0.0	 0.0	 0.0	 0.0	 0.0	 0.0	 0.0	 0.0	 179.0; % NG
	168	 65.5	 -60.0	 59.0	 -179.0	 1.0	 58.99	 1	 118	 13.0	 0.0	 0.0	 0.0	 0.0	 0.0	 0.0	 0.0	 0.0	 0.0	 0.0	 55.0; % NG
	169	 0.0	 0.0	 18.33	 -18.33	 1.0	 55.0	 0	 22	 13.0	 0.0	 0.0	 0.0	 0.0	 0.0	 0.0	 0.0	 0.0	 0.0	 0.0	 55.0; % NG
	171	 33.0	 3.5	 189.0	 -182.0	 1.0	 0.36	 1	 66	 0.0	 0.0	 0.0	 0.0	 0.0	 0.0	 0.0	 0.0	 0.0	 0.0	 0.0	 284.0; % COW
	177	 16.0	 14.5	 199.0	 -170.0	 1.0	 18.0	 1	 32	 0.0	 0.0	 0.0	 0.0	 0.0	 0.0	 0.0	 0.0	 0.0	 0.0	 0.0	 18.0; % PEL
	178	 16.5	 12.0	 189.0	 -165.0	 1.0	 22.0	 1	 33	 0.0	 0.0	 0.0	 0.0	 0.0	 0.0	 0.0	 0.0	 0.0	 0.0	 0.0	 22.0; % PEL
	183	 33.5	 -2.0	 180.0	 -184.0	 1.0	 0.24	 1	 67	 0.0	 0.0	 0.0	 0.0	 0.0	 0.0	 0.0	 0.0	 0.0	 0.0	 0.0	 262.0; % NG
	185	 20.9375	 0.0	 40.8	 -40.8	 1.0	 100.0	 1	 41	 0.875	 0.0	 0.0	 0.0	 0.0	 0.0	 0.0	 0.0	 0.0	 0.0	 0.0	 273.0; % NG
	188	 21.25	 7.0	 193.0	 -179.0	 1.0	 2.0	 1	 42	 0.5	 0.0	 0.0	 0.0	 0.0	 0.0	 0.0	 0.0	 0.0	 0.0	 0.0	 299.0; % COW
	194	 76.5	 2.5	 189.0	 -184.0	 1.0	 1.0	 1	 153	 0.0	 0.0	 0.0	 0.0	 0.0	 0.0	 0.0	 0.0	 0.0	 0.0	 0.0	 284.0; % COW
	195	 80.5	 6.5	 183.0	 -170.0	 1.0	 1.08	 1	 161	 0.0	 0.0	 0.0	 0.0	 0.0	 0.0	 0.0	 0.0	 0.0	 0.0	 0.0	 256.0; % NG
	201	 66.5	 5.0	 188.0	 -178.0	 1.0	 0.12	 1	 133	 0.0	 0.0	 0.0	 0.0	 0.0	 0.0	 0.0	 0.0	 0.0	 0.0	 0.0	 291.0; % NG
	207	 56.0	 9.5	 197.0	 -178.0	 1.0	 9.0	 1	 112	 0.0	 0.0	 0.0	 0.0	 0.0	 0.0	 0.0	 0.0	 0.0	 0.0	 0.0	 294.0; % NG
	209	 60.0	 2.0	 185.0	 -181.0	 1.0	 0.24	 1	 120	 0.0	 0.0	 0.0	 0.0	 0.0	 0.0	 0.0	 0.0	 0.0	 0.0	 0.0	 261.0; % NG
	217	 91.4375	 0.0	 88.8	 -88.8	 1.0	 100.0	 1	 151	 31.875	 0.0	 0.0	 0.0	 0.0	 0.0	 0.0	 0.0	 0.0	 0.0	 0.0	 171.015; % NG
	223	 113.5	 0.0	 224.4	 -224.4	 1.0	 282.49	 1	 167	 60.0	 0.0	 0.0	 0.0	 0.0	 0.0	 0.0	 0.0	 0.0	 0.0	 0.0	 268.77; % NG
	224	 161.5	 0.0	 132.0	 -132.0	 1.0	 281.34	 1	 263	 60.0	 0.0	 0.0	 0.0	 0.0	 0.0	 0.0	 0.0	 0.0	 0.0	 0.0	 268.75; % NG
	225	 184.75	 -11.025	 168.75	 -190.8	 1.0	 252.98	 1	 302	 67.5	 0.0	 0.0	 0.0	 0.0	 0.0	 0.0	 0.0	 0.0	 0.0	 0.0	 256.25; % NG
	227	 0.0	 0.0	 45.0	 -45.0	 1.0	 135.0	 0	 31	 -135.0	 0.0	 0.0	 0.0	 0.0	 0.0	 0.0	 0.0	 0.0	 0.0	 0.0	 135.0; % NG
	227	 0.0	 0.0	 45.0	 -45.0	 1.0	 135.0	 0	 87	 -135.0	 0.0	 0.0	 0.0	 0.0	 0.0	 0.0	 0.0	 0.0	 0.0	 0.0	 135.0; % NG
	228	 0.0	 0.0	 45.0	 -45.0	 1.0	 135.0	 0	 26	 -135.0	 0.0	 0.0	 0.0	 0.0	 0.0	 0.0	 0.0	 0.0	 0.0	 0.0	 135.0; % NG
	228	 0.0	 0.0	 45.0	 -45.0	 1.0	 135.0	 0	 42	 -135.0	 0.0	 0.0	 0.0	 0.0	 0.0	 0.0	 0.0	 0.0	 0.0	 0.0	 135.0; % COW
	235	 0.0	 0.0	 22.0	 -22.0	 1.0	 50.0	 0	 43	 19.0	 0.0	 0.0	 0.0	 0.0	 0.0	 0.0	 0.0	 0.0	 0.0	 0.0	 50.0; % NG
	235	 0.0	 0.0	 71.0	 -71.0	 1.0	 50.0	 0	 141	 19.0	 0.0	 0.0	 0.0	 0.0	 0.0	 0.0	 0.0	 0.0	 0.0	 0.0	 50.0; % NG
	235	 0.0	 0.0	 58.0	 -58.0	 1.0	 50.0	 0	 115	 19.0	 0.0	 0.0	 0.0	 0.0	 0.0	 0.0	 0.0	 0.0	 0.0	 0.0	 50.0; % PEL
	236	 0.0	 0.0	 32.0	 -32.0	 1.0	 50.0	 0	 64	 19.0	 0.0	 0.0	 0.0	 0.0	 0.0	 0.0	 0.0	 0.0	 0.0	 0.0	 50.0; % NG
	245	 0.0	 0.0	 258.0	 -258.0	 1.0	 100.0	 0	 516	 0.06	 0.0	 0.0	 0.0	 0.0	 0.0	 0.0	 0.0	 0.0	 0.0	 0.0	 295.0; % NG
	246	 111.5	 19.0	 120.0	 -82.0	 1.0	 273.78	 1	 163	 60.0	 0.0	 0.0	 0.0	 0.0	 0.0	 0.0	 0.0	 0.0	 0.0	 0.0	 268.75; % NG
	248	 26.3925	 0.0	 23.0	 -23.0	 1.0	 100.0	 1	 46	 6.785	 0.0	 0.0	 0.0	 0.0	 0.0	 0.0	 0.0	 0.0	 0.0	 0.0	 60.349; % COW
	252	 81.5	 0.0	 202.8	 -202.8	 1.0	 160.45	 1	 128	 35.0	 0.0	 0.0	 0.0	 0.0	 0.0	 0.0	 0.0	 0.0	 0.0	 0.0	 156.25; % NG
	252	 86.0	 0.0	 202.8	 -202.8	 1.0	 143.77	 1	 137	 35.0	 0.0	 0.0	 0.0	 0.0	 0.0	 0.0	 0.0	 0.0	 0.0	 0.0	 125.0; % COW
	274	 34.5	 -2.0	 180.0	 -184.0	 1.0	 42.43	 1	 69	 0.0	 0.0	 0.0	 0.0	 0.0	 0.0	 0.0	 0.0	 0.0	 0.0	 0.0	 297.0; % COW
	277	 0.0	 0.0	 33.33	 -33.33	 1.0	 100.0	 0	 65	 61.485	 0.0	 0.0	 0.0	 0.0	 0.0	 0.0	 0.0	 0.0	 0.0	 0.0	 137.965; % NG
	281	 0.0	 0.0	 40.0	 -40.0	 1.0	 100.0	 0	 80	 19.27	 0.0	 0.0	 0.0	 0.0	 0.0	 0.0	 0.0	 0.0	 0.0	 0.0	 53.537; % NG
	282	 0.0	 0.0	 112.0	 -112.0	 1.0	 100.0	 0	 224	 134.54	 0.0	 0.0	 0.0	 0.0	 0.0	 0.0	 0.0	 0.0	 0.0	 0.0	 284.075; % NG
	285	 0.0	 0.0	 72.0	 -72.0	 1.0	 100.0	 0	 144	 13.51	 0.0	 0.0	 0.0	 0.0	 0.0	 0.0	 0.0	 0.0	 0.0	 0.0	 42.024; % NG
	289	 51.5	 0.0	 152.0	 -152.0	 1.0	 216.55	 1	 303	 -200.0	 0.0	 0.0	 0.0	 0.0	 0.0	 0.0	 0.0	 0.0	 0.0	 0.0	 179.0; % NG
	289	 19.5	 0.0	 120.0	 -120.0	 1.0	 179.0	 1	 239	 -200.0	 0.0	 0.0	 0.0	 0.0	 0.0	 0.0	 0.0	 0.0	 0.0	 0.0	 179.0; % NG
	289	 155.0	 0.0	 255.0	 -255.0	 1.0	 179.0	 1	 510	 -200.0	 0.0	 0.0	 0.0	 0.0	 0.0	 0.0	 0.0	 0.0	 0.0	 0.0	 179.0; % NG
	290	 59.5	 0.0	 160.0	 -160.0	 1.0	 179.0	 1	 319	 -200.0	 0.0	 0.0	 0.0	 0.0	 0.0	 0.0	 0.0	 0.0	 0.0	 0.0	 179.0; % NG
	292	 162.5	 -10.5	 156.0	 -177.0	 1.0	 58.99	 1	 312	 13.0	 0.0	 0.0	 0.0	 0.0	 0.0	 0.0	 0.0	 0.0	 0.0	 0.0	 55.0; % PEL
	293	 0.0	 0.0	 96.0	 -96.0	 1.0	 55.0	 0	 191	 13.0	 0.0	 0.0	 0.0	 0.0	 0.0	 0.0	 0.0	 0.0	 0.0	 0.0	 55.0; % NG
	295	 60.0	 5.0	 188.0	 -178.0	 1.0	 0.36	 1	 120	 0.0	 0.0	 0.0	 0.0	 0.0	 0.0	 0.0	 0.0	 0.0	 0.0	 0.0	 296.0; % NG
	301	 20.0	 0.5	 180.0	 -179.0	 1.0	 18.0	 1	 40	 0.0	 0.0	 0.0	 0.0	 0.0	 0.0	 0.0	 0.0	 0.0	 0.0	 0.0	 18.0; % NG
	302	 15.5	 6.5	 186.0	 -173.0	 1.0	 22.0	 1	 31	 0.0	 0.0	 0.0	 0.0	 0.0	 0.0	 0.0	 0.0	 0.0	 0.0	 0.0	 22.0; % PEL
	307	 51.5	 14.0	 200.0	 -172.0	 1.0	 0.24	 1	 103	 0.0	 0.0	 0.0	 0.0	 0.0	 0.0	 0.0	 0.0	 0.0	 0.0	 0.0	 294.0; % NG
	309	 0.0	 0.0	 112.0	 -112.0	 1.0	 100.0	 0	 223	 3.83	 0.0	 0.0	 0.0	 0.0	 0.0	 0.0	 0.0	 0.0	 0.0	 0.0	 295.0; % NG
	312	 31.25	 14.5	 196.0	 -167.0	 1.0	 2.0	 1	 62	 0.5	 0.0	 0.0	 0.0	 0.0	 0.0	 0.0	 0.0	 0.0	 0.0	 0.0	 258.0; % COW
	318	 90.0	 -1.0	 177.0	 -179.0	 1.0	 1.0	 1	 180	 0.0	 0.0	 0.0	 0.0	 0.0	 0.0	 0.0	 0.0	 0.0	 0.0	 0.0	 299.0; % NG
	319	 113.0	 11.5	 196.0	 -173.0	 1.0	 1.08	 1	 226	 0.0	 0.0	 0.0	 0.0	 0.0	 0.0	 0.0	 0.0	 0.0	 0.0	 0.0	 264.0; % NG
	325	 104.0	 1.5	 175.0	 -172.0	 1.0	 0.12	 1	 208	 0.0	 0.0	 0.0	 0.0	 0.0	 0.0	 0.0	 0.0	 0.0	 0.0	 0.0	 267.0; % NG
	331	 18.0	 1.0	 176.0	 -174.0	 1.0	 9.0	 1	 36	 0.0	 0.0	 0.0	 0.0	 0.0	 0.0	 0.0	 0.0	 0.0	 0.0	 0.0	 254.0; % NG
	333	 24.0	 14.0	 199.0	 -171.0	 1.0	 0.24	 1	 48	 0.0	 0.0	 0.0	 0.0	 0.0	 0.0	 0.0	 0.0	 0.0	 0.0	 0.0	 267.0; % NG
	343	 242.5	 0.0	 363.58	 -363.58	 1.0	 100.0	 1	 485	 0.0	 0.0	 0.0	 0.0	 0.0	 0.0	 0.0	 0.0	 0.0	 0.0	 0.0	 403.976; % NG
	344	 214.0	 0.0	 363.58	 -363.58	 1.0	 100.0	 1	 428	 0.0	 0.0	 0.0	 0.0	 0.0	 0.0	 0.0	 0.0	 0.0	 0.0	 0.0	 403.976; % NG
	345	 218.0	 0.0	 363.62	 -363.62	 1.0	 100.0	 1	 436	 0.0	 0.0	 0.0	 0.0	 0.0	 0.0	 0.0	 0.0	 0.0	 0.0	 0.0	 404.019; % NG
	347	 123.5	 0.0	 330.75	 -330.75	 1.0	 100.0	 1	 247	 0.0	 0.0	 0.0	 0.0	 0.0	 0.0	 0.0	 0.0	 0.0	 0.0	 0.0	 367.5; % NG
	348	 0.0	 0.0	 93.0	 -93.0	 1.0	 100.0	 0	 185	 620.08	 0.0	 0.0	 0.0	 0.0	 0.0	 0.0	 0.0	 0.0	 0.0	 0.0	 635.08; % COW
	349	 142.0	 0.0	 194.4	 -194.4	 1.0	 100.0	 1	 284	 0.0	 0.0	 0.0	 0.0	 0.0	 0.0	 0.0	 0.0	 0.0	 0.0	 0.0	 270.0; % COW
	350	 198.5	 0.0	 199.0	 -199.0	 1.0	 100.0	 1	 397	 0.0	 0.0	 0.0	 0.0	 0.0	 0.0	 0.0	 0.0	 0.0	 0.0	 0.0	 270.0; % NG
	351	 243.5	 0.0	 244.0	 -244.0	 1.0	 100.0	 1	 487	 0.0	 0.0	 0.0	 0.0	 0.0	 0.0	 0.0	 0.0	 0.0	 0.0	 0.0	 270.0; % NG
	352	 211.0	 0.0	 211.0	 -211.0	 1.0	 100.0	 1	 422	 0.0	 0.0	 0.0	 0.0	 0.0	 0.0	 0.0	 0.0	 0.0	 0.0	 0.0	 270.0; % NG
	353	 128.0	 0.0	 218.7	 -218.7	 1.0	 100.0	 1	 256	 0.0	 0.0	 0.0	 0.0	 0.0	 0.0	 0.0	 0.0	 0.0	 0.0	 0.0	 303.75; % NG
	354	 144.0	 0.0	 218.7	 -218.7	 1.0	 100.0	 1	 288	 0.0	 0.0	 0.0	 0.0	 0.0	 0.0	 0.0	 0.0	 0.0	 0.0	 0.0	 303.75; % COW
	355	 120.5	 0.0	 195.21	 -195.21	 1.0	 100.0	 1	 241	 0.0	 0.0	 0.0	 0.0	 0.0	 0.0	 0.0	 0.0	 0.0	 0.0	 0.0	 271.125; % NG
	356	 119.5	 0.0	 195.21	 -195.21	 1.0	 100.0	 1	 239	 0.0	 0.0	 0.0	 0.0	 0.0	 0.0	 0.0	 0.0	 0.0	 0.0	 0.0	 271.125; % NG
	357	 179.0	 0.0	 195.21	 -195.21	 1.0	 100.0	 1	 358	 0.0	 0.0	 0.0	 0.0	 0.0	 0.0	 0.0	 0.0	 0.0	 0.0	 0.0	 271.125; % NG
	358	 156.0	 0.0	 312.12	 -312.12	 1.0	 100.0	 1	 312	 0.0	 0.0	 0.0	 0.0	 0.0	 0.0	 0.0	 0.0	 0.0	 0.0	 0.0	 346.8; % NG
	360	 205.5	 0.0	 358.13	 -358.13	 1.0	 100.0	 1	 411	 0.0	 0.0	 0.0	 0.0	 0.0	 0.0	 0.0	 0.0	 0.0	 0.0	 0.0	 397.923; % COW
	361	 145.0	 0.0	 358.13	 -358.13	 1.0	 100.0	 1	 290	 0.0	 0.0	 0.0	 0.0	 0.0	 0.0	 0.0	 0.0	 0.0	 0.0	 0.0	 397.923; % NG
	362	 216.5	 0.0	 358.13	 -358.13	 1.0	 100.0	 1	 433	 0.0	 0.0	 0.0	 0.0	 0.0	 0.0	 0.0	 0.0	 0.0	 0.0	 0.0	 397.923; % NG
	364	 233.0	 0.0	 327.38	 -327.38	 1.0	 100.0	 1	 466	 0.0	 0.0	 0.0	 0.0	 0.0	 0.0	 0.0	 0.0	 0.0	 0.0	 0.0	 363.75; % NG
	365	 165.5	 0.0	 327.38	 -327.38	 1.0	 100.0	 1	 331	 0.0	 0.0	 0.0	 0.0	 0.0	 0.0	 0.0	 0.0	 0.0	 0.0	 0.0	 363.75; % COW
	366	 101.5	 0.0	 157.95	 -157.95	 1.0	 100.0	 1	 203	 0.0	 0.0	 0.0	 0.0	 0.0	 0.0	 0.0	 0.0	 0.0	 0.0	 0.0	 219.375; % NG
	367	 148.5	 0.0	 157.95	 -157.95	 1.0	 100.0	 1	 297	 0.0	 0.0	 0.0	 0.0	 0.0	 0.0	 0.0	 0.0	 0.0	 0.0	 0.0	 219.375; % NG
	374	 0.0	 0.0	 33.33	 -33.33	 1.0	 100.0	 0	 13	 1259.13	 0.0	 0.0	 0.0	 0.0	 0.0	 0.0	 0.0	 0.0	 0.0	 0.0	 1274.13; % NG
	379	 736.1725	 0.0	 613.0	 -613.0	 1.0	 100.0	 1	 1225	 247.345	 0.0	 0.0	 0.0	 0.0	 0.0	 0.0	 0.0	 0.0	 0.0	 0.0	 781.582; % COW
	385	 942.905	 0.0	 865.0	 -865.0	 1.0	 100.0	 1	 1729	 156.81	 0.0	 0.0	 0.0	 0.0	 0.0	 0.0	 0.0	 0.0	 0.0	 0.0	 470.436; % NG
	392	 182.5	 0.0	 365.98	 -365.98	 1.0	 100.0	 1	 365	 0.0	 0.0	 0.0	 0.0	 0.0	 0.0	 0.0	 0.0	 0.0	 0.0	 0.0	 406.648; % NG
	393	 211.5	 0.0	 365.63	 -365.63	 1.0	 100.0	 1	 423	 0.0	 0.0	 0.0	 0.0	 0.0	 0.0	 0.0	 0.0	 0.0	 0.0	 0.0	 406.252; % NG
	394	 218.0	 0.0	 365.94	 -365.94	 1.0	 100.0	 1	 436	 0.0	 0.0	 0.0	 0.0	 0.0	 0.0	 0.0	 0.0	 0.0	 0.0	 0.0	 406.605; % NG
	395	 173.5	 0.0	 365.89	 -365.89	 1.0	 100.0	 1	 347	 0.0	 0.0	 0.0	 0.0	 0.0	 0.0	 0.0	 0.0	 0.0	 0.0	 0.0	 406.539; % NG
	397	 140.0	 0.0	 330.75	 -330.75	 1.0	 100.0	 1	 280	 0.0	 0.0	 0.0	 0.0	 0.0	 0.0	 0.0	 0.0	 0.0	 0.0	 0.0	 367.5; % NG
	399	 160.0	 0.0	 330.75	 -330.75	 1.0	 100.0	 1	 320	 0.0	 0.0	 0.0	 0.0	 0.0	 0.0	 0.0	 0.0	 0.0	 0.0	 0.0	 367.5; % NG
	400	 133.5	 0.0	 330.75	 -330.75	 1.0	 100.0	 1	 267	 0.0	 0.0	 0.0	 0.0	 0.0	 0.0	 0.0	 0.0	 0.0	 0.0	 0.0	 367.5; % NG
	402	 281.5	 0.0	 282.0	 -282.0	 1.0	 100.0	 1	 563	 0.0	 0.0	 0.0	 0.0	 0.0	 0.0	 0.0	 0.0	 0.0	 0.0	 0.0	 270.0; % NG
	403	 172.0	 0.0	 194.4	 -194.4	 1.0	 100.0	 1	 344	 0.0	 0.0	 0.0	 0.0	 0.0	 0.0	 0.0	 0.0	 0.0	 0.0	 0.0	 270.0; % NG
	404	 147.0	 0.0	 194.4	 -194.4	 1.0	 100.0	 1	 294	 0.0	 0.0	 0.0	 0.0	 0.0	 0.0	 0.0	 0.0	 0.0	 0.0	 0.0	 270.0; % NG
	405	 175.5	 0.0	 194.4	 -194.4	 1.0	 100.0	 1	 351	 0.0	 0.0	 0.0	 0.0	 0.0	 0.0	 0.0	 0.0	 0.0	 0.0	 0.0	 270.0; % NG
	406	 446.0	 0.0	 446.0	 -446.0	 1.0	 100.0	 1	 892	 0.0	 0.0	 0.0	 0.0	 0.0	 0.0	 0.0	 0.0	 0.0	 0.0	 0.0	 303.75; % NG
	407	 125.5	 0.0	 218.7	 -218.7	 1.0	 100.0	 1	 251	 0.0	 0.0	 0.0	 0.0	 0.0	 0.0	 0.0	 0.0	 0.0	 0.0	 0.0	 303.75; % NG
	408	 92.5	 0.0	 195.21	 -195.21	 1.0	 100.0	 1	 185	 0.0	 0.0	 0.0	 0.0	 0.0	 0.0	 0.0	 0.0	 0.0	 0.0	 0.0	 271.125; % NG
	409	 196.0	 0.0	 196.0	 -196.0	 1.0	 100.0	 1	 392	 0.0	 0.0	 0.0	 0.0	 0.0	 0.0	 0.0	 0.0	 0.0	 0.0	 0.0	 271.125; % COW
	410	 213.0	 0.0	 213.0	 -213.0	 1.0	 100.0	 1	 426	 0.0	 0.0	 0.0	 0.0	 0.0	 0.0	 0.0	 0.0	 0.0	 0.0	 0.0	 271.125; % COW
	411	 133.5	 0.0	 312.12	 -312.12	 1.0	 100.0	 1	 267	 0.0	 0.0	 0.0	 0.0	 0.0	 0.0	 0.0	 0.0	 0.0	 0.0	 0.0	 346.8; % NG
	414	 176.0	 0.0	 228.15	 -228.15	 1.0	 100.0	 1	 352	 0.0	 0.0	 0.0	 0.0	 0.0	 0.0	 0.0	 0.0	 0.0	 0.0	 0.0	 316.875; % COW
	415	 114.0	 0.0	 228.15	 -228.15	 1.0	 100.0	 1	 228	 0.0	 0.0	 0.0	 0.0	 0.0	 0.0	 0.0	 0.0	 0.0	 0.0	 0.0	 316.875; % NG
	416	 196.5	 0.0	 228.15	 -228.15	 1.0	 100.0	 1	 393	 0.0	 0.0	 0.0	 0.0	 0.0	 0.0	 0.0	 0.0	 0.0	 0.0	 0.0	 316.875; % NG
	417	 209.5	 0.0	 353.7	 -353.7	 1.0	 100.0	 1	 419	 0.0	 0.0	 0.0	 0.0	 0.0	 0.0	 0.0	 0.0	 0.0	 0.0	 0.0	 393.0; % NG
	418	 139.0	 0.0	 234.9	 -234.9	 1.0	 100.0	 1	 278	 0.0	 0.0	 0.0	 0.0	 0.0	 0.0	 0.0	 0.0	 0.0	 0.0	 0.0	 326.25; % NG
	419	 111.0	 0.0	 234.9	 -234.9	 1.0	 100.0	 1	 222	 0.0	 0.0	 0.0	 0.0	 0.0	 0.0	 0.0	 0.0	 0.0	 0.0	 0.0	 326.25; % NG
	420	 118.5	 0.0	 226.8	 -226.8	 1.0	 100.0	 1	 237	 0.0	 0.0	 0.0	 0.0	 0.0	 0.0	 0.0	 0.0	 0.0	 0.0	 0.0	 315.0; % NG
	421	 268.5	 0.0	 366.02	 -366.02	 1.0	 100.0	 1	 537	 0.0	 0.0	 0.0	 0.0	 0.0	 0.0	 0.0	 0.0	 0.0	 0.0	 0.0	 406.694; % NG
	423	 89.0	 0.0	 89.0	 -89.0	 1.0	 100.0	 1	 178	 0.0	 0.0	 0.0	 0.0	 0.0	 0.0	 0.0	 0.0	 0.0	 0.0	 0.0	 82.5; % NG
	424	 119.0	 0.0	 119.0	 -119.0	 1.0	 100.0	 1	 238	 0.0	 0.0	 0.0	 0.0	 0.0	 0.0	 0.0	 0.0	 0.0	 0.0	 0.0	 82.5; % NG
	425	 79.5	 0.0	 80.0	 -80.0	 1.0	 100.0	 1	 159	 0.0	 0.0	 0.0	 0.0	 0.0	 0.0	 0.0	 0.0	 0.0	 0.0	 0.0	 84.375; % NG
	426	 51.0	 0.0	 60.75	 -60.75	 1.0	 100.0	 1	 102	 0.0	 0.0	 0.0	 0.0	 0.0	 0.0	 0.0	 0.0	 0.0	 0.0	 0.0	 84.375; % COW
	427	 107.5	 0.0	 108.0	 -108.0	 1.0	 100.0	 1	 215	 0.0	 0.0	 0.0	 0.0	 0.0	 0.0	 0.0	 0.0	 0.0	 0.0	 0.0	 84.375; % NG
	428	 68.0	 0.0	 68.0	 -68.0	 1.0	 100.0	 1	 136	 0.0	 0.0	 0.0	 0.0	 0.0	 0.0	 0.0	 0.0	 0.0	 0.0	 0.0	 84.375; % NG
	430	 160.0	 0.0	 327.38	 -327.38	 1.0	 100.0	 1	 320	 0.0	 0.0	 0.0	 0.0	 0.0	 0.0	 0.0	 0.0	 0.0	 0.0	 0.0	 363.75; % NG
	431	 261.5	 0.0	 327.38	 -327.38	 1.0	 100.0	 1	 523	 0.0	 0.0	 0.0	 0.0	 0.0	 0.0	 0.0	 0.0	 0.0	 0.0	 0.0	 363.75; % COW
	432	 111.0	 0.0	 157.95	 -157.95	 1.0	 100.0	 1	 222	 0.0	 0.0	 0.0	 0.0	 0.0	 0.0	 0.0	 0.0	 0.0	 0.0	 0.0	 219.375; % NG
	433	 121.0	 0.0	 157.95	 -157.95	 1.0	 100.0	 1	 242	 0.0	 0.0	 0.0	 0.0	 0.0	 0.0	 0.0	 0.0	 0.0	 0.0	 0.0	 219.375; % NG
	444	 358.785	 0.0	 290.0	 -290.0	 1.0	 100.0	 1	 580	 137.57	 0.0	 0.0	 0.0	 0.0	 0.0	 0.0	 0.0	 0.0	 0.0	 0.0	 412.705; % NG
	445	 375.6475	 0.0	 325.0	 -325.0	 1.0	 100.0	 1	 649	 102.295	 0.0	 0.0	 0.0	 0.0	 0.0	 0.0	 0.0	 0.0	 0.0	 0.0	 342.005; % NG
	452	 254.5	 0.0	 384.45	 -384.45	 1.0	 100.0	 1	 509	 0.0	 0.0	 0.0	 0.0	 0.0	 0.0	 0.0	 0.0	 0.0	 0.0	 0.0	 427.171; % NG
	453	 321.0	 0.0	 384.3	 -384.3	 1.0	 100.0	 1	 642	 0.0	 0.0	 0.0	 0.0	 0.0	 0.0	 0.0	 0.0	 0.0	 0.0	 0.0	 427.003; % NG
	455	 107.0	 0.0	 383.78	 -383.78	 1.0	 100.0	 1	 214	 0.0	 0.0	 0.0	 0.0	 0.0	 0.0	 0.0	 0.0	 0.0	 0.0	 0.0	 426.422; % NG
	456	 279.5	 0.0	 383.82	 -383.82	 1.0	 100.0	 1	 559	 0.0	 0.0	 0.0	 0.0	 0.0	 0.0	 0.0	 0.0	 0.0	 0.0	 0.0	 426.467; % COW
	457	 152.5	 0.0	 314.55	 -314.55	 1.0	 100.0	 1	 305	 0.0	 0.0	 0.0	 0.0	 0.0	 0.0	 0.0	 0.0	 0.0	 0.0	 0.0	 349.5; % NG
	458	 152.0	 0.0	 314.55	 -314.55	 1.0	 100.0	 1	 304	 0.0	 0.0	 0.0	 0.0	 0.0	 0.0	 0.0	 0.0	 0.0	 0.0	 0.0	 349.5; % NG
	459	 375.0	 0.0	 383.4	 -383.4	 1.0	 100.0	 1	 750	 0.0	 0.0	 0.0	 0.0	 0.0	 0.0	 0.0	 0.0	 0.0	 0.0	 0.0	 426.0; % COW
	460	 240.0	 0.0	 310.5	 -310.5	 1.0	 100.0	 1	 480	 0.0	 0.0	 0.0	 0.0	 0.0	 0.0	 0.0	 0.0	 0.0	 0.0	 0.0	 345.0; % COW
	461	 205.0	 0.0	 310.5	 -310.5	 1.0	 100.0	 1	 410	 0.0	 0.0	 0.0	 0.0	 0.0	 0.0	 0.0	 0.0	 0.0	 0.0	 0.0	 345.0; % NG
	462	 287.0	 0.0	 384.19	 -384.19	 1.0	 100.0	 1	 574	 0.0	 0.0	 0.0	 0.0	 0.0	 0.0	 0.0	 0.0	 0.0	 0.0	 0.0	 426.88; % NG
	464	 195.5	 0.0	 384.25	 -384.25	 1.0	 100.0	 1	 391	 0.0	 0.0	 0.0	 0.0	 0.0	 0.0	 0.0	 0.0	 0.0	 0.0	 0.0	 426.944; % NG
	465	 285.5	 0.0	 384.25	 -384.25	 1.0	 100.0	 1	 571	 0.0	 0.0	 0.0	 0.0	 0.0	 0.0	 0.0	 0.0	 0.0	 0.0	 0.0	 426.944; % NG
	466	 0.0	 0.0	 33.33	 -33.33	 1.0	 100.0	 0	 21	 382.21	 0.0	 0.0	 0.0	 0.0	 0.0	 0.0	 0.0	 0.0	 0.0	 0.0	 397.208; % NG
	467	 0.0	 0.0	 224.0	 -224.0	 1.0	 100.0	 0	 447	 0.0	 0.0	 0.0	 0.0	 0.0	 0.0	 0.0	 0.0	 0.0	 0.0	 0.0	 300.0; % NG
	468	 391.315	 0.0	 351.0	 -351.0	 1.0	 100.0	 1	 702	 80.63	 0.0	 0.0	 0.0	 0.0	 0.0	 0.0	 0.0	 0.0	 0.0	 0.0	 398.372; % COW
	469	 0.0	 0.0	 277.0	 -277.0	 1.0	 100.0	 0	 553	 0.0	 0.0	 0.0	 0.0	 0.0	 0.0	 0.0	 0.0	 0.0	 0.0	 0.0	 297.0; % COW
	469	 0.0	 0.0	 33.33	 -33.33	 1.0	 100.0	 0	 0	 0.0	 0.0	 0.0	 0.0	 0.0	 0.0	 0.0	 0.0	 0.0	 0.0	 0.0	 299.0; % NG
	469	 534.065	 0.0	 500.0	 -500.0	 1.0	 100.0	 1	 999	 69.13	 0.0	 0.0	 0.0	 0.0	 0.0	 0.0	 0.0	 0.0	 0.0	 0.0	 789.511; % COW
	470	 952.74	 0.0	 757.0	 -757.0	 1.0	 100.0	 1	 1514	 391.48	 0.0	 0.0	 0.0	 0.0	 0.0	 0.0	 0.0	 0.0	 0.0	 0.0	 1109.155; % COW
	471	 0.0	 0.0	 33.33	 -33.33	 1.0	 100.0	 0	 21	 878.59	 0.0	 0.0	 0.0	 0.0	 0.0	 0.0	 0.0	 0.0	 0.0	 0.0	 893.593; % COW
	478	 0.0	 0.0	 69.0	 -69.0	 1.0	 100.0	 0	 137	 49.08	 0.0	 0.0	 0.0	 0.0	 0.0	 0.0	 0.0	 0.0	 0.0	 0.0	 113.164; % NG
	480	 1229.5	 0.0	 1230.0	 -1230.0	 1.0	 100.0	 1	 2459	 0.0	 0.0	 0.0	 0.0	 0.0	 0.0	 0.0	 0.0	 0.0	 0.0	 0.0	 623.996; % COW
	488	 244.535	 0.0	 213.0	 -213.0	 1.0	 100.0	 1	 426	 63.07	 0.0	 0.0	 0.0	 0.0	 0.0	 0.0	 0.0	 0.0	 0.0	 0.0	 173.611; % NG
	489	 227.65	 0.0	 200.0	 -200.0	 1.0	 100.0	 1	 400	 55.3	 0.0	 0.0	 0.0	 0.0	 0.0	 0.0	 0.0	 0.0	 0.0	 0.0	 173.374; % NG
	503	 0.0	 0.0	 187.0	 -187.0	 1.0	 100.0	 0	 373	 0.0	 0.0	 0.0	 0.0	 0.0	 0.0	 0.0	 0.0	 0.0	 0.0	 0.0	 300.0; % COW
	507	 43.61	 0.0	 42.0	 -42.0	 1.0	 100.0	 1	 83	 4.22	 0.0	 0.0	 0.0	 0.0	 0.0	 0.0	 0.0	 0.0	 0.0	 0.0	 38.249; % PEL
	509	 78.25	 -54.0	 76.0	 -184.0	 1.0	 78.0	 1	 151	 5.5	 0.0	 0.0	 0.0	 0.0	 0.0	 0.0	 0.0	 0.0	 0.0	 0.0	 78.0; % PEL
	527	 88.75	 -45.0	 84.0	 -174.0	 1.0	 83.96	 1	 167	 10.5	 0.0	 0.0	 0.0	 0.0	 0.0	 0.0	 0.0	 0.0	 0.0	 0.0	 86.25; % NG
	546	 82.5	 21.7	 131.0	 -87.6	 1.0	 258.66	 1	 165	 0.0	 0.0	 0.0	 0.0	 0.0	 0.0	 0.0	 0.0	 0.0	 0.0	 0.0	 268.721; % NG
	558	 46.655	 2.5	 190.0	 -185.0	 1.0	 100.0	 1	 91	 2.31	 0.0	 0.0	 0.0	 0.0	 0.0	 0.0	 0.0	 0.0	 0.0	 0.0	 27.174; % NG
	580	 0.0	 0.0	 150.0	 -150.0	 1.0	 100.0	 0	 299	 34.905	 0.0	 0.0	 0.0	 0.0	 0.0	 0.0	 0.0	 0.0	 0.0	 0.0	 84.808; % NG
...
];

%% generator cost data
%	2	startup	shutdown	n	c(n-1)	...	c0
mpc.gencost = [
	2	 0.0	 0.0	 3	   0.000000	  15.444266	   0.000000; % NG
	2	 0.0	 0.0	 3	   0.000000	  24.488844	   0.000000; % NG
	2	 0.0	 0.0	 3	   0.000000	  27.387509	   0.000000; % COW
	2	 0.0	 0.0	 3	   0.000000	  25.831073	   0.000000; % NG
	2	 0.0	 0.0	 3	   0.000000	  35.732917	   0.000000; % COW
	2	 0.0	 0.0	 3	   0.000000	  53.837516	   0.000000; % NG
	2	 0.0	 0.0	 3	   0.000000	 119.235425	   0.000000; % NG
	2	 0.0	 0.0	 3	   0.000000	  29.008840	   0.000000; % NG
	2	 0.0	 0.0	 3	   0.000000	  11.035106	   0.000000; % NG
	2	 0.0	 0.0	 3	   0.000000	 115.108034	   0.000000; % PEL
	2	 0.0	 0.0	 3	   0.000000	  30.754884	   0.000000; % COW
	2	 0.0	 0.0	 3	   0.000000	 104.525295	   0.000000; % PEL
	2	 0.0	 0.0	 3	   0.000000	 101.361083	   0.000000; % NG
	2	 0.0	 0.0	 3	   0.000000	  25.657160	   0.000000; % NG
	2	 0.0	 0.0	 3	   0.000000	  25.468567	   0.000000; % NG
	2	 0.0	 0.0	 3	   0.000000	  35.375868	   0.000000; % COW
	2	 0.0	 0.0	 3	   0.000000	  38.968510	   0.000000; % NG
	2	 0.0	 0.0	 3	   0.000000	  25.686812	   0.000000; % NG
	2	 0.0	 0.0	 3	   0.000000	  24.739415	   0.000000; % COW
	2	 0.0	 0.0	 3	   0.000000	  33.242118	   0.000000; % COW
	2	 0.0	 0.0	 3	   0.000000	  25.682664	   0.000000; % NG
	2	 0.0	 0.0	 3	   0.000000	  24.305960	   0.000000; % NG
	2	 0.0	 0.0	 3	   0.000000	  18.660320	   0.000000; % NG
	2	 0.0	 0.0	 3	   0.000000	  29.999518	   0.000000; % NG
	2	 0.0	 0.0	 3	   0.000000	  36.469959	   0.000000; % NG
	2	 0.0	 0.0	 3	   0.000000	  35.106890	   0.000000; % NG
	2	 0.0	 0.0	 3	   0.000000	  90.390247	   0.000000; % PEL
	2	 0.0	 0.0	 3	   0.000000	  43.253956	   0.000000; % NG
	2	 0.0	 0.0	 3	   0.000000	  42.862709	   0.000000; % NG
	2	 0.0	 0.0	 3	   0.000000	  23.847358	   0.000000; % NG
	2	 0.0	 0.0	 3	   0.000000	  33.811369	   0.000000; % PEL
	2	 0.0	 0.0	 3	   0.000000	  36.801773	   0.000000; % NG
	2	 0.0	 0.0	 3	   0.000000	  25.551803	   0.000000; % NG
	2	 0.0	 0.0	 3	   0.000000	  97.096271	   0.000000; % NG
	2	 0.0	 0.0	 3	   0.000000	  31.289459	   0.000000; % NG
	2	 0.0	 0.0	 3	   0.000000	  29.531430	   0.000000; % NG
	2	 0.0	 0.0	 3	   0.000000	  25.577601	   0.000000; % PEL
	2	 0.0	 0.0	 3	   0.000000	  35.839671	   0.000000; % PEL
	2	 0.0	 0.0	 3	   0.000000	 109.594691	   0.000000; % NG
	2	 0.0	 0.0	 3	   0.000000	  75.838561	   0.000000; % PEL
	2	 0.0	 0.0	 3	   0.000000	 106.839511	   0.000000; % PEL
	2	 0.0	 0.0	 3	   0.000000	  42.168357	   0.000000; % COW
	2	 0.0	 0.0	 3	   0.000000	  20.411491	   0.000000; % NG
	2	 0.0	 0.0	 3	   0.000000	 102.513436	   0.000000; % NG
	2	 0.0	 0.0	 3	   0.000000	  50.825648	   0.000000; % NG
	2	 0.0	 0.0	 3	   0.000000	  47.427488	   0.000000; % COW
	2	 0.0	 0.0	 3	   0.000000	  17.560676	   0.000000; % NG
	2	 0.0	 0.0	 3	   0.000000	  31.497926	   0.000000; % NG
	2	 0.0	 0.0	 3	   0.000000	  53.968846	   0.000000; % NG
	2	 0.0	 0.0	 3	   0.000000	  29.446747	   0.000000; % COW
	2	 0.0	 0.0	 3	   0.000000	  26.786756	   0.000000; % NG
	2	 0.0	 0.0	 3	   0.000000	  24.414856	   0.000000; % COW
	2	 0.0	 0.0	 3	   0.000000	  29.948518	   0.000000; % NG
	2	 0.0	 0.0	 3	   0.000000	  28.412676	   0.000000; % NG
	2	 0.0	 0.0	 3	   0.000000	  55.301877	   0.000000; % NG
	2	 0.0	 0.0	 3	   0.000000	  30.206383	   0.000000; % NG
	2	 0.0	 0.0	 3	   0.000000	  23.813896	   0.000000; % NG
	2	 0.0	 0.0	 3	   0.000000	  46.008664	   0.000000; % COW
	2	 0.0	 0.0	 3	   0.000000	  41.750697	   0.000000; % PEL
	2	 0.0	 0.0	 3	   0.000000	  48.712945	   0.000000; % PEL
	2	 0.0	 0.0	 3	   0.000000	  16.441286	   0.000000; % NG
	2	 0.0	 0.0	 3	   0.000000	  46.203911	   0.000000; % NG
	2	 0.0	 0.0	 3	   0.000000	  45.377814	   0.000000; % COW
	2	 0.0	 0.0	 3	   0.000000	  25.856876	   0.000000; % COW
	2	 0.0	 0.0	 3	   0.000000	  42.249859	   0.000000; % NG
	2	 0.0	 0.0	 3	   0.000000	  50.452144	   0.000000; % NG
	2	 0.0	 0.0	 3	   0.000000	   7.328937	   0.000000; % NG
	2	 0.0	 0.0	 3	   0.000000	  23.072783	   0.000000; % NG
	2	 0.0	 0.0	 3	   0.000000	  29.486660	   0.000000; % NG
	2	 0.0	 0.0	 3	   0.000000	  32.530716	   0.000000; % NG
	2	 0.0	 0.0	 3	   0.000000	  51.316488	   0.000000; % NG
	2	 0.0	 0.0	 3	   0.000000	  48.251328	   0.000000; % NG
	2	 0.0	 0.0	 3	   0.000000	  20.655327	   0.000000; % NG
	2	 0.0	 0.0	 3	   0.000000	  24.770302	   0.000000; % NG
	2	 0.0	 0.0	 3	   0.000000	  31.740797	   0.000000; % NG
	2	 0.0	 0.0	 3	   0.000000	  18.906077	   0.000000; % COW
	2	 0.0	 0.0	 3	   0.000000	  47.679948	   0.000000; % NG
	2	 0.0	 0.0	 3	   0.000000	  46.398098	   0.000000; % NG
	2	 0.0	 0.0	 3	   0.000000	 120.936533	   0.000000; % PEL
	2	 0.0	 0.0	 3	   0.000000	  57.281961	   0.000000; % NG
	2	 0.0	 0.0	 3	   0.000000	  20.914827	   0.000000; % NG
	2	 0.0	 0.0	 3	   0.000000	  35.469509	   0.000000; % NG
	2	 0.0	 0.0	 3	   0.000000	  15.764905	   0.000000; % COW
	2	 0.0	 0.0	 3	   0.000000	  18.281221	   0.000000; % NG
	2	 0.0	 0.0	 3	   0.000000	  31.135564	   0.000000; % COW
	2	 0.0	 0.0	 3	   0.000000	  35.223256	   0.000000; % COW
	2	 0.0	 0.0	 3	   0.000000	  36.141603	   0.000000; % NG
	2	 0.0	 0.0	 3	   0.000000	  20.528527	   0.000000; % NG
	2	 0.0	 0.0	 3	   0.000000	  31.462014	   0.000000; % NG
	2	 0.0	 0.0	 3	   0.000000	 123.945797	   0.000000; % NG
	2	 0.0	 0.0	 3	   0.000000	  29.671228	   0.000000; % NG
	2	 0.0	 0.0	 3	   0.000000	  34.038789	   0.000000; % NG
	2	 0.0	 0.0	 3	   0.000000	  18.861692	   0.000000; % NG
	2	 0.0	 0.0	 3	   0.000000	  22.470802	   0.000000; % NG
	2	 0.0	 0.0	 3	   0.000000	  30.650869	   0.000000; % PEL
	2	 0.0	 0.0	 3	   0.000000	  11.702808	   0.000000; % NG
	2	 0.0	 0.0	 3	   0.000000	  40.640444	   0.000000; % NG
	2	 0.0	 0.0	 3	   0.000000	 110.078885	   0.000000; % NG
	2	 0.0	 0.0	 3	   0.000000	  27.058757	   0.000000; % PEL
	2	 0.0	 0.0	 3	   0.000000	  38.802771	   0.000000; % NG
	2	 0.0	 0.0	 3	   0.000000	  45.519946	   0.000000; % NG
	2	 0.0	 0.0	 3	   0.000000	  56.355593	   0.000000; % COW
	2	 0.0	 0.0	 3	   0.000000	  24.140644	   0.000000; % NG
	2	 0.0	 0.0	 3	   0.000000	  37.621264	   0.000000; % NG
	2	 0.0	 0.0	 3	   0.000000	  41.516554	   0.000000; % NG
	2	 0.0	 0.0	 3	   0.000000	  29.400751	   0.000000; % NG
	2	 0.0	 0.0	 3	   0.000000	  37.035287	   0.000000; % NG
	2	 0.0	 0.0	 3	   0.000000	  14.959842	   0.000000; % NG
	2	 0.0	 0.0	 3	   0.000000	  34.103289	   0.000000; % NG
	2	 0.0	 0.0	 3	   0.000000	  59.632282	   0.000000; % NG
	2	 0.0	 0.0	 3	   0.000000	  37.485949	   0.000000; % NG
	2	 0.0	 0.0	 3	   0.000000	  22.639653	   0.000000; % COW
	2	 0.0	 0.0	 3	   0.000000	  41.891400	   0.000000; % COW
	2	 0.0	 0.0	 3	   0.000000	   9.203497	   0.000000; % NG
	2	 0.0	 0.0	 3	   0.000000	  31.900110	   0.000000; % NG
	2	 0.0	 0.0	 3	   0.000000	  27.953906	   0.000000; % NG
	2	 0.0	 0.0	 3	   0.000000	  43.993313	   0.000000; % NG
	2	 0.0	 0.0	 3	   0.000000	  20.935484	   0.000000; % COW
	2	 0.0	 0.0	 3	   0.000000	  25.311287	   0.000000; % NG
	2	 0.0	 0.0	 3	   0.000000	  37.077604	   0.000000; % NG
	2	 0.0	 0.0	 3	   0.000000	  32.579796	   0.000000; % NG
	2	 0.0	 0.0	 3	   0.000000	  48.850190	   0.000000; % NG
	2	 0.0	 0.0	 3	   0.000000	  37.893759	   0.000000; % COW
	2	 0.0	 0.0	 3	   0.000000	  38.799354	   0.000000; % NG
	2	 0.0	 0.0	 3	   0.000000	  33.937619	   0.000000; % NG
	2	 0.0	 0.0	 3	   0.000000	  22.231646	   0.000000; % NG
	2	 0.0	 0.0	 3	   0.000000	  15.111240	   0.000000; % COW
	2	 0.0	 0.0	 3	   0.000000	  23.127494	   0.000000; % NG
	2	 0.0	 0.0	 3	   0.000000	  53.388402	   0.000000; % NG
	2	 0.0	 0.0	 3	   0.000000	  16.707821	   0.000000; % NG
	2	 0.0	 0.0	 3	   0.000000	  14.332151	   0.000000; % COW
	2	 0.0	 0.0	 3	   0.000000	  36.251726	   0.000000; % NG
	2	 0.0	 0.0	 3	   0.000000	  39.670247	   0.000000; % NG
	2	 0.0	 0.0	 3	   0.000000	  39.748022	   0.000000; % NG
	2	 0.0	 0.0	 3	   0.000000	  46.114976	   0.000000; % NG
	2	 0.0	 0.0	 3	   0.000000	  30.115230	   0.000000; % NG
	2	 0.0	 0.0	 3	   0.000000	  33.499293	   0.000000; % NG
	2	 0.0	 0.0	 3	   0.000000	  33.470143	   0.000000; % NG
	2	 0.0	 0.0	 3	   0.000000	  43.612518	   0.000000; % NG
	2	 0.0	 0.0	 3	   0.000000	  43.536382	   0.000000; % NG
	2	 0.0	 0.0	 3	   0.000000	  37.903793	   0.000000; % NG
	2	 0.0	 0.0	 3	   0.000000	  26.668547	   0.000000; % NG
	2	 0.0	 0.0	 3	   0.000000	  32.056712	   0.000000; % NG
	2	 0.0	 0.0	 3	   0.000000	  33.199428	   0.000000; % NG
	2	 0.0	 0.0	 3	   0.000000	  17.226846	   0.000000; % NG
	2	 0.0	 0.0	 3	   0.000000	  39.185089	   0.000000; % NG
	2	 0.0	 0.0	 3	   0.000000	  26.349873	   0.000000; % COW
	2	 0.0	 0.0	 3	   0.000000	  39.533053	   0.000000; % COW
	2	 0.0	 0.0	 3	   0.000000	  35.928529	   0.000000; % NG
	2	 0.0	 0.0	 3	   0.000000	  45.432696	   0.000000; % COW
	2	 0.0	 0.0	 3	   0.000000	  43.220415	   0.000000; % NG
	2	 0.0	 0.0	 3	   0.000000	  34.203580	   0.000000; % NG
	2	 0.0	 0.0	 3	   0.000000	  19.713744	   0.000000; % NG
	2	 0.0	 0.0	 3	   0.000000	  53.554362	   0.000000; % NG
	2	 0.0	 0.0	 3	   0.000000	  43.401942	   0.000000; % NG
	2	 0.0	 0.0	 3	   0.000000	  25.364837	   0.000000; % NG
	2	 0.0	 0.0	 3	   0.000000	  58.524484	   0.000000; % NG
	2	 0.0	 0.0	 3	   0.000000	 126.975192	   0.000000; % NG
	2	 0.0	 0.0	 3	   0.000000	  34.740217	   0.000000; % NG
	2	 0.0	 0.0	 3	   0.000000	  29.198984	   0.000000; % NG
	2	 0.0	 0.0	 3	   0.000000	 101.102300	   0.000000; % COW
	2	 0.0	 0.0	 3	   0.000000	  24.684790	   0.000000; % NG
	2	 0.0	 0.0	 3	   0.000000	  35.697484	   0.000000; % NG
	2	 0.0	 0.0	 3	   0.000000	  35.235034	   0.000000; % NG
	2	 0.0	 0.0	 3	   0.000000	  32.458432	   0.000000; % COW
	2	 0.0	 0.0	 3	   0.000000	  43.502328	   0.000000; % NG
	2	 0.0	 0.0	 3	   0.000000	  20.328700	   0.000000; % NG
	2	 0.0	 0.0	 3	   0.000000	  17.740519	   0.000000; % NG
	2	 0.0	 0.0	 3	   0.000000	  44.142229	   0.000000; % NG
	2	 0.0	 0.0	 3	   0.000000	  19.351431	   0.000000; % NG
	2	 0.0	 0.0	 3	   0.000000	  41.381319	   0.000000; % NG
	2	 0.0	 0.0	 3	   0.000000	  29.484934	   0.000000; % NG
	2	 0.0	 0.0	 3	   0.000000	  24.710731	   0.000000; % COW
	2	 0.0	 0.0	 3	   0.000000	  24.198983	   0.000000; % NG
	2	 0.0	 0.0	 3	   0.000000	  33.091507	   0.000000; % NG
	2	 0.0	 0.0	 3	   0.000000	  42.122385	   0.000000; % COW
	2	 0.0	 0.0	 3	   0.000000	  22.328785	   0.000000; % COW
	2	 0.0	 0.0	 3	   0.000000	  33.602371	   0.000000; % NG
	2	 0.0	 0.0	 3	   0.000000	  31.711274	   0.000000; % NG
	2	 0.0	 0.0	 3	   0.000000	  36.528751	   0.000000; % NG
	2	 0.0	 0.0	 3	   0.000000	  21.654716	   0.000000; % NG
	2	 0.0	 0.0	 3	   0.000000	  41.861355	   0.000000; % NG
	2	 0.0	 0.0	 3	   0.000000	  23.660788	   0.000000; % NG
	2	 0.0	 0.0	 3	   0.000000	  27.807403	   0.000000; % COW
	2	 0.0	 0.0	 3	   0.000000	  42.314877	   0.000000; % COW
	2	 0.0	 0.0	 3	   0.000000	  44.649901	   0.000000; % NG
	2	 0.0	 0.0	 3	   0.000000	   7.445716	   0.000000; % COW
	2	 0.0	 0.0	 3	   0.000000	  26.019760	   0.000000; % COW
	2	 0.0	 0.0	 3	   0.000000	  25.487575	   0.000000; % COW
	2	 0.0	 0.0	 3	   0.000000	  26.421133	   0.000000; % NG
	2	 0.0	 0.0	 3	   0.000000	  23.187235	   0.000000; % COW
	2	 0.0	 0.0	 3	   0.000000	  24.668888	   0.000000; % NG
	2	 0.0	 0.0	 3	   0.000000	  45.814371	   0.000000; % NG
	2	 0.0	 0.0	 3	   0.000000	  26.594627	   0.000000; % COW
	2	 0.0	 0.0	 3	   0.000000	  30.362641	   0.000000; % PEL
	2	 0.0	 0.0	 3	   0.000000	 107.675994	   0.000000; % PEL
	2	 0.0	 0.0	 3	   0.000000	  18.626329	   0.000000; % NG
	2	 0.0	 0.0	 3	   0.000000	  43.840082	   0.000000; % NG
	2	 0.0	 0.0	 3	   0.000000	  56.845250	   0.000000; % NG
	2	 0.0	 0.0	 3	   0.000000	  31.299095	   0.000000; % NG
...
];

%% branch data
%	fbus	tbus	r	x	b	rateA	rateB	rateC	ratio	angle	status	angmin	angmax
mpc.branch = [
	1	 2	 2e-05	 0.00021	 0.0	 876.0	 876.0	 876.0	 0.0	 0.0	 1	 -30.0	 30.0;
	1	 10	 0.00593	 0.04093	 0.07215	 341.0	 341.0	 341.0	 0.0	 0.0	 1	 -30.0	 30.0;
	11	 1	 0.00287	 0.10711	 0.0	 100.0	 100.0	 100.0	 1.00972	 0.0	 1	 -30.0	 30.0;
	12	 2	 0.0014	 0.06927	 0.0	 160.0	 160.0	 160.0	 0.99664	 0.0	 1	 -30.0	 30.0;
	2	 507	 0.0001	 0.01	 0.0	 83.7	 98.6	 125.55	 0.0	 0.0	 1	 -30.0	 30.0;
	3	 4	 2e-05	 0.00021	 0.0	 876.0	 876.0	 876.0	 0.0	 0.0	 1	 -30.0	 30.0;
	3	 8	 0.00777	 0.04128	 0.06391	 197.0	 197.0	 197.0	 0.0	 0.0	 1	 -30.0	 30.0;
	4	 1027	 0.0001	 0.01	 0.0	 198.78	 238.54	 298.17	 0.0	 0.0	 1	 -30.0	 30.0;
	5	 6	 2e-05	 0.00021	 0.0	 876.0	 876.0	 876.0	 0.0	 0.0	 1	 -30.0	 30.0;
	5	 9	 0.00488	 0.03362	 0.05961	 341.0	 341.0	 341.0	 0.0	 0.0	 1	 -30.0	 30.0;
	26	 5	 0.0014	 0.06831	 0.0	 160.0	 160.0	 160.0	 1.03811	 0.0	 1	 -30.0	 30.0;
	6	 217	 0.0001	 0.01	 0.0	 445.51	 534.61	 668.26	 0.0	 0.0	 1	 -30.0	 30.0;
	7	 8	 2e-05	 0.00021	 0.0	 876.0	 876.0	 876.0	 0.0	 0.0	 1	 -30.0	 30.0;
	7	 10	 0.00455	 0.03157	 0.05531	 231.0	 231.0	 231.0	 0.0	 0.0	 1	 -30.0	 30.0;
	46	 7	 0.00152	 0.06749	 0.0	 160.0	 160.0	 160.0	 1.06341	 0.0	 1	 -30.0	 30.0;
	9	 10	 2e-05	 0.00021	 0.0	 876.0	 876.0	 876.0	 0.0	 0.0	 1	 -30.0	 30.0;
	9	 2095	 0.0001	 0.01	 0.0	 140.51	 168.61	 210.76	 0.0	 0.0	 1	 -30.0	 30.0;
	10	 68	 0.00139	 0.06852	 0.0	 160.0	 160.0	 160.0	 1.0224	 0.0	 1	 -30.0	 30.0;
	69	 10	 0.00154	 0.06811	 0.0	 160.0	 160.0	 160.0	 1.04321	 0.0	 1	 -30.0	 30.0;
	11	 23	 0.03868	 0.10116	 0.0108	 87.61	 113.89	 113.89	 0.0	 0.0	 1	 -30.0	 30.0;
	11	 26	 0.00719	 0.02248	 0.00246	 62.0	 62.0	 62.0	 0.0	 0.0	 1	 -30.0	 30.0;
	11	 43	 0.01636	 0.04132	 0.0045	 50.0	 50.0	 50.0	 0.0	 0.0	 1	 -30.0	 30.0;
	12	 14	 0.00752	 0.02207	 0.00251	 80.22	 104.29	 104.29	 0.0	 0.0	 1	 -30.0	 30.0;
	12	 25	 0.00719	 0.02256	 0.00247	 62.0	 62.0	 62.0	 0.0	 0.0	 1	 -30.0	 30.0;
	13	 59	 0.02256	 0.04314	 0.004	 49.0	 49.0	 49.0	 0.0	 0.0	 1	 -30.0	 30.0;
	14	 245	 0.0001	 0.01	 0.0	 83.7	 98.6	 125.55	 0.0	 0.0	 1	 -30.0	 30.0;
	15	 16	 0.00058	 0.00157	 0.00021	 75.0	 75.0	 75.0	 0.0	 0.0	 1	 -30.0	 30.0;
	16	 58	 0.00107	 0.00298	 0.0004	 112.72	 146.54	 146.54	 0.0	 0.0	 1	 -30.0	 30.0;
	16	 64	 0.00182	 0.00529	 0.00071	 111.39	 144.81	 144.81	 0.0	 0.0	 1	 -30.0	 30.0;
	17	 20	 0.00496	 0.0162	 0.00164	 75.0	 75.0	 75.0	 0.0	 0.0	 1	 -30.0	 30.0;
	18	 62	 0.00033	 0.00099	 0.00013	 75.0	 75.0	 75.0	 0.0	 0.0	 1	 -30.0	 30.0;
	19	 63	 0.00033	 0.00091	 0.00012	 75.0	 75.0	 75.0	 0.0	 0.0	 1	 -30.0	 30.0;
	20	 28	 0.00934	 0.0257	 0.00253	 63.0	 63.0	 63.0	 0.0	 0.0	 1	 -30.0	 30.0;
	20	 30	 0.01504	 0.04033	 0.00401	 63.0	 63.0	 63.0	 0.0	 0.0	 1	 -30.0	 30.0;
	21	 22	 8e-05	 0.00083	 0.0	 438.0	 438.0	 438.0	 0.0	 0.0	 1	 -30.0	 30.0;
	21	 44	 0.00512	 0.01669	 0.00168	 114.0	 114.0	 114.0	 0.0	 0.0	 1	 -30.0	 30.0;
	22	 46	 0.02826	 0.0924	 0.00933	 99.0	 99.0	 99.0	 0.0	 0.0	 1	 -30.0	 30.0;
	24	 46	 0.01669	 0.04364	 0.00566	 106.38	 138.3	 138.3	 0.0	 0.0	 1	 -30.0	 30.0;
	24	 271	 0.0001	 0.01	 0.0	 83.7	 98.6	 125.55	 0.0	 0.0	 1	 -30.0	 30.0;
	25	 26	 8e-05	 0.00083	 0.0	 438.0	 438.0	 438.0	 0.0	 0.0	 1	 -30.0	 30.0;
	25	 38	 0.01595	 0.0414	 0.00404	 50.0	 50.0	 50.0	 0.0	 0.0	 1	 -30.0	 30.0;
	26	 37	 0.01595	 0.04132	 0.00403	 50.0	 50.0	 50.0	 0.0	 0.0	 1	 -30.0	 30.0;
	26	 41	 0.02926	 0.0514	 0.00489	 39.0	 39.0	 39.0	 0.0	 0.0	 1	 -30.0	 30.0;
	27	 28	 0.00554	 0.00959	 0.00095	 47.0	 47.0	 47.0	 0.0	 0.0	 1	 -30.0	 30.0;
	28	 64	 0.0057	 0.01479	 0.0015	 63.0	 63.0	 63.0	 0.0	 0.0	 1	 -30.0	 30.0;
	29	 30	 0.00017	 0.00041	 6e-05	 75.0	 75.0	 75.0	 0.0	 0.0	 1	 -30.0	 30.0;
	30	 65	 8e-05	 0.00025	 2e-05	 75.0	 75.0	 75.0	 0.0	 0.0	 1	 -30.0	 30.0;
	31	 32	 8e-05	 0.00083	 0.0	 438.0	 438.0	 438.0	 0.0	 0.0	 1	 -30.0	 30.0;
	31	 69	 0.01298	 0.04074	 0.0045	 75.0	 75.0	 75.0	 0.0	 0.0	 1	 -30.0	 30.0;
	32	 530	 0.0001	 0.01	 0.0	 83.7	 98.6	 125.55	 0.0	 0.0	 1	 -30.0	 30.0;
	33	 34	 0.00165	 0.00537	 0.00054	 75.0	 75.0	 75.0	 0.0	 0.0	 1	 -30.0	 30.0;
	34	 54	 0.01926	 0.06198	 0.00647	 103.29	 134.27	 134.27	 0.0	 0.0	 1	 -30.0	 30.0;
	34	 68	 0.01041	 0.03388	 0.00346	 114.08	 148.3	 148.3	 0.0	 0.0	 1	 -30.0	 30.0;
	35	 37	 0.0005	 0.00107	 0.00014	 29.0	 29.0	 29.0	 0.0	 0.0	 1	 -30.0	 30.0;
	36	 38	 0.0005	 0.00116	 0.00014	 29.0	 29.0	 29.0	 0.0	 0.0	 1	 -30.0	 30.0;
	37	 64	 0.03174	 0.08347	 0.00816	 50.0	 50.0	 50.0	 0.0	 0.0	 1	 -30.0	 30.0;
	38	 65	 0.03174	 0.08347	 0.00816	 50.0	 50.0	 50.0	 0.0	 0.0	 1	 -30.0	 30.0;
	39	 66	 0.03826	 0.04818	 0.00455	 83.83	 100.59	 125.74	 0.0	 0.0	 1	 -30.0	 30.0;
	39	 1234	 0.0001	 0.01	 0.0	 83.7	 98.6	 125.55	 0.0	 0.0	 1	 -30.0	 30.0;
...